/*--------------------------------*- C++ -*----------------------------------*\
| cardiacFoam: the OpenFOAM heart project                                     |
| Version:     v0.1                                                           |
| Web:         https://cardiacFoam.github.io                                  |
| Disclaimer:  This offering is not approved or endorsed by OpenCFD Limited,  |
|              producer and distributor of the OpenFOAM software via          |
|              www.openfoam.com, and owner of the OPENFOAM® and OpenCFD®      |
|              trade marks.                                                   |
\*---------------------------------------------------------------------------*/
FoamFile
{
    version     2.0;
    format      ascii;
    class       dictionary;
    location    "system";
    object      fvSolution;
}
// * * * * * * * * * * * * * * * * * * * * * * * * * * * * * * * * * * * * * //

solvers
{
    "Vm|VmFinal|u|uFinal"
    {
        solver          PCG;
        preconditioner  DIC;
        tolerance       1e-11;
        relTol          0.0;
    }

    "psi|psiFinal"
    {
        solver          PCG;
        preconditioner  DIC;
        tolerance       1e-11;
        relTol          0.1;
    }

    asymmetric_psi
    {
        solver          PBiCGStab;
        preconditioner  DILU;
        tolerance       1e-11;
        relTol          0.1;
    }
}

// PIMPLE settings for eikonalElectroActivationFoam
PIMPLE
{
    nOuterCorrectors    1000;

    residualControl
    {
        "Vm|psi"
        {
            relTol          0.0;
            tolerance       1e-6;
        }
    }
}

relaxationFactors
{
    equations
    {
        psi    0.9;
    }
    fields
    {
        //psi    0.5;
    }
}

// ************************************************************************* //
