/*--------------------------------*- C++ -*----------------------------------*\
| solids4foam: solid mechanics and fluid-solid interaction simulations        |
| Version:     v2.0                                                           |
| Web:         https://solids4foam.github.io                                  |
| Disclaimer:  This offering is not approved or endorsed by OpenCFD Limited,  |
|              producer and distributor of the OpenFOAM software via          |
|              www.openfoam.com, and owner of the OPENFOAM® and OpenCFD®      |
|              trade marks.                                                   |
\*---------------------------------------------------------------------------*/
FoamFile
{
    version     2.0;
    format      ascii;
    class       dictionary;
    object      fvSchemes;
}
// * * * * * * * * * * * * * * * * * * * * * * * * * * * * * * * * * * * * * //

d2dt2Schemes
{
    default            steadyState;
}

ddtSchemes
{
    default            steadyState;
    // default            Euler; // for predictor
}

gradSchemes
{
    default            pointCellsLeastSquares;
    //default            edgeCellsLeastSquares;
}

divSchemes
{
    default            Gauss linear;
}

laplacianSchemes
{
    default            Gauss linear skewCorrected 1;
}

snGradSchemes
{
    default            none;
    snGrad(D)          skewCorrected 1;
    snGrad(DD)         skewCorrected 1;
}

interpolationSchemes
{
    default            skewCorrected linear;
    // interpolate(impK)  linear;
    // interpolate(grad(D)) linear;
    // interpolate(grad(DD)) linear;
}

// ************************************************************************* //
