/*--------------------------------*- C++ -*----------------------------------*\
| solids4foam: solid mechanics and fluid-solid interaction simulations        |
| Version:     v2.0                                                           |
| Web:         https://solids4foam.github.io                                  |
| Disclaimer:  This offering is not approved or endorsed by OpenCFD Limited,  |
|              producer and distributor of the OpenFOAM software via          |
|              www.openfoam.com, and owner of the OPENFOAM® and OpenCFD®      |
|              trade marks.                                                   |
\*---------------------------------------------------------------------------*/
FoamFile
{
    version     2.0;
    format      ascii;
    class       dictionary;
    object      mechanicalProperties;
}
// * * * * * * * * * * * * * * * * * * * * * * * * * * * * * * * * * * * * * //

planeStress     no;

mechanical
(
    heartTissue
    {
        type            neoHookeanElastic;
        //type            StVenantKirchhoffElastic;
        rho             rho [1 -3 0 0 0 0 0] 3000;
        mu              mu [1 -1 -2 0 0 0 0] 10e3;
        K               K [1 -1 -2 0 0 0 0] 20e3;

        // To solve pressure Poisson equation
        solvePressureEqn                yes;

        // Pressure smoothing scale factor
        pressureSmoothingScaleFactor 100;

        // type            electroMechanicalLaw;
        // rho             rho [1 -3 0 0 0 0 0] 3000;
        activeTension   activeTension [1 -1 -2 0 0 0 0] 0.0;
        passiveMechanicalLaw
        {
            type            GuccioneElastic;
            k               k [1 -1 -2 0 0 0 0] 10e3;
            cf              1.0;
            ct              1.0;
            cfs             1.0;

            // The bulk modulus acts as a penalty factor to enforce
            // incompressiblity
            bulkModulus     bulkModulus [1 -1 -2 0 0 0 0] 20e3; //20e3;
        }
    }
);

// ************************************************************************* //
