/*--------------------------------*- C++ -*----------------------------------*\
| cardiacFoam: the OpenFOAM heart project                                     |
| Version:     v0.1                                                           |
| Web:         https://cardiacFoam.github.io                                  |
| Disclaimer:  This offering is not approved or endorsed by OpenCFD Limited,  |
|              producer and distributor of the OpenFOAM software via          |
|              www.openfoam.com, and owner of the OPENFOAM® and OpenCFD®      |
|              trade marks.                                                   |
\*---------------------------------------------------------------------------*/
FoamFile
{
    version     2.0;
    format      ascii;
    class       dictionary;
    object      extrudeMeshDict;
}
// * * * * * * * * * * * * * * * * * * * * * * * * * * * * * * * * * * * * * //

constructFrom patch;

// If construct from patch/mesh:
sourceCase ".";
sourcePatches (top);

// If construct from patch: patch to use for back (can be same as sourcePatch)
exposedPatchName top;

// Flip surface normals before usage. Valid only for extrude from surface or
// patch.
flipNormals true;

//- Sector extrusion
extrudeModel        sector;

nLayers             36;

expansionRatio      1;

sectorCoeffs    //<- Also used for wedge
{
    point       (0 0 0);
    axis        (0 0 1);
    angle       360;  // For nLayers=1 assume symmetry so angle/2 on each side
}

// Do front and back need to be merged? Usually only makes sense for 360
// degree wedges.
mergeFaces true;

// Merge small edges. Fraction of bounding box.
mergeTol 1e-9;

// * * * * * * * * * * * * * * * * * * * * * * * * * * * * * * * * * * * * * //
