/*--------------------------------*- C++ -*----------------------------------*\
| =========                 |                                                 |
| \\      /  F ield         | OpenFOAM: The Open Source CFD Toolbox           |
|  \\    /   O peration     | Version:  2312                                  |
|   \\  /    A nd           | Website:  www.openfoam.com                      |
|    \\/     M anipulation  |                                                 |
\*---------------------------------------------------------------------------*/
FoamFile
{
    version     2.0;
    format      ascii;
    arch        "LSB;label=32;scalar=64";
    class       polyBoundaryMesh;
    location    "constant/polyMesh";
    object      boundary;
}
// * * * * * * * * * * * * * * * * * * * * * * * * * * * * * * * * * * * * * //

6
(
    left
    {
        type            patch;
        nFaces          16;
        startFace       1584;
    }
    right
    {
        type            patch;
        nFaces          16;
        startFace       1600;
    }
    back
    {
        type            patch;
        nFaces          160;
        startFace       1616;
    }
    front
    {
        type            patch;
        nFaces          160;
        startFace       1776;
    }
    top
    {
        type            patch;
        nFaces          160;
        startFace       1936;
    }
    bottom
    {
        type            patch;
        nFaces          160;
        startFace       2096;
    }
)

// ************************************************************************* //
