/*--------------------------------*- C++ -*----------------------------------*\
| =========                 |                                                 |
| \\      /  F ield         | OpenFOAM: The Open Source CFD Toolbox           |
|  \\    /   O peration     | Version:  v2012                                 |
|   \\  /    A nd           | Website:  www.openfoam.com                      |
|    \\/     M anipulation  |                                                 |
\*---------------------------------------------------------------------------*/
FoamFile
{
    version     2.0;
    format      ascii;
    class       volVectorField;
    location    "0";
    object      D;
}
// * * * * * * * * * * * * * * * * * * * * * * * * * * * * * * * * * * * * * //

dimensions      [0 1 0 0 0 0 0];


internalField   uniform (0 0 0);

boundaryField
{
    fixed
    {
        type            fixedDisplacement;
        value           uniform (0 0 0);
    }
    inside
    {
        type            solidTraction;
        traction        uniform ( 0 0 0 );
        pressureSeries
        {
            "file|fileName" "$FOAM_CASE/constant/timeVsPressure";
            outOfBounds     clamp;
        }
        value           uniform (0 0 0);
    }
    outside
    {
        type            solidTraction;
        traction        uniform ( 0 0 0 );
        pressure        uniform 0;
        value           uniform (0 0 0);
    }
}


// ************************************************************************* //
