/*--------------------------------*- C++ -*----------------------------------*\
| cardiacFoam: the OpenFOAM heart project                                     |
| Version:     v0.1                                                           |
| Web:         https://cardiacFoam.github.io                                  |
| Disclaimer:  This offering is not approved or endorsed by OpenCFD Limited,  |
|              producer and distributor of the OpenFOAM software via          |
|              www.openfoam.com, and owner of the OPENFOAM® and OpenCFD®      |
|              trade marks.                                                   |
\*---------------------------------------------------------------------------*/
FoamFile
{
    version     2.0;
    format      ascii;
    class       dictionary;
    location    "constant";
    object      solidProperties;
}
// * * * * * * * * * * * * * * * * * * * * * * * * * * * * * * * * * * * * * //

//solidModel     linearGeometryTotalDisplacement;
solidModel     nonLinearGeometryTotalLagrangianTotalDisplacement;

"linearGeometryTotalDisplacementCoeffs|nonLinearGeometryTotalLagrangianTotalDisplacementCoeffs"
{
    // Solution algorithm
    //solutionAlgorithm implicitSegregated;
    solutionAlgorithm PETScSNES;
    //solutionAlgorithm explicit;

    // PETSc options file used by PETScSNES
    optionsFile petscOptions.hypre;

    // Predictor D at the start of a new time step using U and A
    predictor yes;

    stabilisation
    {
        type        RhieChow;
        //type        alpha;
        scaleFactor 0.5;
    }
}

// ************************************************************************* //
