/*--------------------------------*- C++ -*----------------------------------*\
| =========                 |                                                 |
| \\      /  F ield         | OpenFOAM: The Open Source CFD Toolbox           |
|  \\    /   O peration     | Version:  v1912                                 |
|   \\  /    A nd           | Website:  www.openfoam.com                      |
|    \\/     M anipulation  |                                                 |
\*---------------------------------------------------------------------------*/
FoamFile
{
    version     2.0;
    format      ascii;
    class       dictionary;
    object      blockMeshDict;
}
// * * * * * * * * * * * * * * * * * * * * * * * * * * * * * * * * * * * * * //



vertices
(
    (0    0.0    0.0)
    (1    0.0    0.0)
    (1    0.1    0.0)
    (0    0.1    0.0)
    (0    0.0    0.1)
    (1    0.0    0.1)
    (1    0.1    0.1)
    (0    0.1    0.1)
);


blocks
(
    // 1 [] slab with (n  1 1) cells in x y z

    // hex (0 1 2 3 4 5 6 7) (5 1 1) simpleGrading (1 1 1)
    //hex (0 1 2 3 4 5 6 7) (10 1 1) simpleGrading (1 1 1)
    //hex (0 1 2 3 4 5 6 7) (20 1 1) simpleGrading (1 1 1)
    hex (0 1 2 3 4 5 6 7) (40 1 1) simpleGrading (1 1 1)
    //hex (0 1 2 3 4 5 6 7) (80 1 1) simpleGrading (1 1 1)
    // hex (0 1 2 3 4 5 6 7) (180 1 1) simpleGrading (1 1 1)
    //hex (0 1 2 3 4 5 6 7) (320 1 1) simpleGrading (1 1 1)
);


edges
(
);

boundary
(
    inlet
    {
        type patch;
        faces
        (
            (0 4 7 3)
        );
    }
    outlet
    {
        type patch;
        faces
        (
            (1 2 6 5)
        );
    }
    sides
    {
        type empty;
        faces
        (
            (0 1 5 4)
            (3 7 6 2)
            (0 3 2 1)
            (4 5 6 7)
        );
    }
);

mergePatchPairs
(
);

// ************************************************************************* //

