/*--------------------------------*- C++ -*----------------------------------*\
| =========                 |                                                 |
| \\      /  F ield         | OpenFOAM: The Open Source CFD Toolbox           |
|  \\    /   O peration     | Version:  v1912                                 |
|   \\  /    A nd           | Website:  www.openfoam.com                      |
|    \\/     M anipulation  |                                                 |
\*---------------------------------------------------------------------------*/
FoamFile
{
    version     2.0;
    format      ascii;
    class       dictionary;
    object      blockMeshDict;
}
// * * * * * * * * * * * * * * * * * * * * * * * * * * * * * * * * * * * * * //



vertices
(
    (0 0 0)          
    (1 0 0)         
    (1 1 0)         
    (0 1 0)          
    (0 0 0.05)       
    (1 0 0.05)       
    (1 1 0.05)       
    (0 1 0.05)  
);     

blocks
(
    // 1 [] slab with (nx ny nz) cells in x y z

    //hex (0 1 2 3 4 5 6 7) (640 1 1) simpleGrading (1 1 1)
hex (0 1 2 3 4 5 6 7) (320 320 1) simpleGrading (1 1 1)
    //hex (0 1 2 3 4 5 6 7) (160 160 160) simpleGrading (1 1 1)     //3D

);


edges
(
);

boundary
(
    inlet
    {
        type patch;
        faces
        (
            (0 4 7 3)
        );
    }
    outlet
    {
        type patch;
        faces
        (
            (1 2 6 5)
        );
    }
    sides
    {
        type empty;
        faces
        (
            (0 1 5 4)
            (3 7 6 2)
            (0 3 2 1)
            (4 5 6 7)
        );
    }
);

mergePatchPairs
(
);

// ************************************************************************* //

