/*--------------------------------*- C++ -*----------------------------------*\
| =========                 |                                                 |
| \\      /  F ield         | OpenFOAM: The Open Source CFD Toolbox           |
|  \\    /   O peration     | Version:  v1912                                 |
|   \\  /    A nd           | Website:  www.openfoam.com                      |
|    \\/     M anipulation  |                                                 |
\*---------------------------------------------------------------------------*/
FoamFile
{
    version     2.0;
    format      ascii;
    class       dictionary;
    location    "system";
    object      fvSolution;
}
// * * * * * * * * * * * * * * * * * * * * * * * * * * * * * * * * * * * * * //

solvers
{
    "Vm|VmFinal|u|uFinal"
    {
        solver          PCG;
        preconditioner  DIC;
        tolerance       1e-15;
        relTol          0.0;
    }
}

PIMPLE
{
    nOuterCorrectors     2;

    // residualControl
    // {
    //     Vm
    //     {
    //         relTol          0.0;
    //         tolerance       1e-10;
    //     }
    // }
}


// ************************************************************************* //
