/*--------------------------------*- C++ -*----------------------------------*\
| cardiacFoam: the OpenFOAM heart project                                     |
| Version:     v0.1                                                           |
| Web:         https://cardiacFoam.github.io                                  |
\*---------------------------------------------------------------------------*/
FoamFile
{
    version     2.0;
    format      ascii;
    class       dictionary;
    location    "constant/solid";
    object      mechanicalProperties;
}
// * * * * * * * * * * * * * * * * * * * * * * * * * * * * * * * * * * * * * //

planeStress     no;

mechanical
(
    heartTissue
    {
        type            electroMechanicalLaw;
        rho             rho [1 -3 0 0 0 0 0] 1060;
        activeTension   activeTension [1 -1 -2 0 0 0 0] 0.0;
        rampTime        0.0;
        passiveMechanicalLaw
        {
            type            GuccioneElastic;
            calculateStressInLocalCoordinateSystem yes;
            k               k [1 -1 -2 0 0 0 0] 2e3;
            cf              8.0;
            ct              2.0;
            cfs             4.0;

            // The bulk modulus acts as a penalty factor to enforce
            // incompressiblity
            bulkModulus     bulkModulus [1 -1 -2 0 0 0 0] 500e3;

            // To solve pressure Poisson equation
            solvePressureEqn yes;

            // Pressure smoothing scale factor
            pressureSmoothingScaleFactor 1e4;
        }
    }
);

// ************************************************************************* //
