/*--------------------------------*- C++ -*----------------------------------*\
| =========                 |                                                 |
| \\      /  F ield         | OpenFOAM: The Open Source CFD Toolbox           |
|  \\    /   O peration     | Version:  v1912                                 |
|   \\  /    A nd           | Website:  www.openfoam.com                      |
|    \\/     M anipulation  |                                                 |
\*---------------------------------------------------------------------------*/
FoamFile
{
    version     2.0;
    format      ascii;
    class       dictionary;
    location    "constant";
    object      stimulusProtocol;
}
// * * * * * * * * * * * * * * * * * * * * * * * * * * * * * * * * * * * * * //

// External stimulus current location

stimulusLocationMin   (0.0451863  0.0653133 0.348809);
stimulusLocationMax   (0.0505503  0.0735264 0.358402);


// External stimulus current characteristics

stimulusDuration    [0 0 1 0 0 0 0] 2e-3;

stimulusIntensity   [0 -3 0 0 0 1 0] 50000;


//Read to run only
//stimulus constants

	stim_start  	0;	//(millisecond)
	stim_duration   0;	//(millisecond)
	stim_amplitude  0;	//(picoA_per_picoF)



//S1 protocol 

	stim_period_S1  0;
	nstim1  0;



//S2 protocol

	stim_period_S2  0;
	nstim2  0;

// ************************************************************************* //

/*
PS: Niederer Stimulus in VolField

 1. External stimulus current intensity [A/m^2]
 2. Per A/m^2 is calculated as A/m^3 * beta (above)
	
	stimulusIntensity   [0 -2 0 0 0 1 0] 0.000000357142857;
	External stimulus current intensity [A/m^3]
 	50000 micro A/cm3 == 50000 A/m3
*/
