FoamFile
{
    version     2.0;
    format      ascii;
    class       dictionary;
    location    "constant";
    object      purkinjeGraph;
}

rootNode
0;

pvjNodes
8(8 9 10 11 12 13 14 15);

pvjLocations
8((0.014 0.0015 0.006) (0.014 0.0015 0.0055) (0.014 0.0015 0.005) (0.014 0.0015 0.004) (0.014 0.0015 0.003) (0.014 0.0015 0.002) (0.017 0.0015 0.0015) (0.017 0.0015 0.001));

conductionEdges

192
(
4(0 16 0.000285714 1)
4(16 17 0.000285714 1)
4(17 18 0.000285714 1)
4(18 19 0.000285714 1)
4(19 20 0.000285714 1)
4(20 21 0.000285714 1)
4(21 22 0.000285714 1)
4(22 23 0.000285714 1)
4(23 24 0.000285714 1)
4(24 25 0.000285714 1)
4(25 26 0.000285714 1)
4(26 27 0.000285714 1)
4(27 28 0.000285714 1)
4(28 1 0.000285714 1)
4(1 29 0.00027735 1)
4(29 30 0.00027735 1)
4(30 31 0.00027735 1)
4(31 32 0.00027735 1)
4(32 33 0.00027735 1)
4(33 34 0.00027735 1)
4(34 35 0.00027735 1)
4(35 36 0.00027735 1)
4(36 37 0.00027735 1)
4(37 38 0.00027735 1)
4(38 39 0.00027735 1)
4(39 40 0.00027735 1)
4(40 2 0.00027735 1)
4(2 41 0.000276489 1)
4(41 42 0.000276489 1)
4(42 43 0.000276489 1)
4(43 44 0.000276489 1)
4(44 45 0.000276489 1)
4(45 46 0.000276489 1)
4(46 47 0.000276489 1)
4(47 48 0.000276489 1)
4(48 49 0.000276489 1)
4(49 50 0.000276489 1)
4(50 4 0.000276489 1)
4(2 51 0.000276489 1)
4(51 52 0.000276489 1)
4(52 53 0.000276489 1)
4(53 54 0.000276489 1)
4(54 55 0.000276489 1)
4(55 56 0.000276489 1)
4(56 57 0.000276489 1)
4(57 58 0.000276489 1)
4(58 59 0.000276489 1)
4(59 60 0.000276489 1)
4(60 5 0.000276489 1)
4(1 61 0.00027735 1)
4(61 62 0.00027735 1)
4(62 63 0.00027735 1)
4(63 64 0.00027735 1)
4(64 65 0.00027735 1)
4(65 66 0.00027735 1)
4(66 67 0.00027735 1)
4(67 68 0.00027735 1)
4(68 69 0.00027735 1)
4(69 70 0.00027735 1)
4(70 71 0.00027735 1)
4(71 72 0.00027735 1)
4(72 3 0.00027735 1)
4(3 73 0.000276489 1)
4(73 74 0.000276489 1)
4(74 75 0.000276489 1)
4(75 76 0.000276489 1)
4(76 77 0.000276489 1)
4(77 78 0.000276489 1)
4(78 79 0.000276489 1)
4(79 80 0.000276489 1)
4(80 81 0.000276489 1)
4(81 82 0.000276489 1)
4(82 6 0.000276489 1)
4(3 83 0.000276489 1)
4(83 84 0.000276489 1)
4(84 85 0.000276489 1)
4(85 86 0.000276489 1)
4(86 87 0.000276489 1)
4(87 88 0.000276489 1)
4(88 89 0.000276489 1)
4(89 90 0.000276489 1)
4(90 91 0.000276489 1)
4(91 92 0.000276489 1)
4(92 7 0.000276489 1)
4(4 93 0.000272727 1)
4(93 94 0.000272727 1)
4(94 95 0.000272727 1)
4(95 96 0.000272727 1)
4(96 97 0.000272727 1)
4(97 98 0.000272727 1)
4(98 99 0.000272727 1)
4(99 100 0.000272727 1)
4(100 101 0.000272727 1)
4(101 102 0.000272727 1)
4(102 8 0.000272727 1)
4(4 103 0.000276489 1)
4(103 104 0.000276489 1)
4(104 105 0.000276489 1)
4(105 106 0.000276489 1)
4(106 107 0.000276489 1)
4(107 108 0.000276489 1)
4(108 109 0.000276489 1)
4(109 110 0.000276489 1)
4(110 111 0.000276489 1)
4(111 112 0.000276489 1)
4(112 9 0.000276489 1)
4(5 113 0.000272727 1)
4(113 114 0.000272727 1)
4(114 115 0.000272727 1)
4(115 116 0.000272727 1)
4(116 117 0.000272727 1)
4(117 118 0.000272727 1)
4(118 119 0.000272727 1)
4(119 120 0.000272727 1)
4(120 121 0.000272727 1)
4(121 122 0.000272727 1)
4(122 10 0.000272727 1)
4(5 123 0.00028748 1)
4(123 124 0.00028748 1)
4(124 125 0.00028748 1)
4(125 126 0.00028748 1)
4(126 127 0.00028748 1)
4(127 128 0.00028748 1)
4(128 129 0.00028748 1)
4(129 130 0.00028748 1)
4(130 131 0.00028748 1)
4(131 132 0.00028748 1)
4(132 11 0.00028748 1)
4(6 133 0.00028748 1)
4(133 134 0.00028748 1)
4(134 135 0.00028748 1)
4(135 136 0.00028748 1)
4(136 137 0.00028748 1)
4(137 138 0.00028748 1)
4(138 139 0.00028748 1)
4(139 140 0.00028748 1)
4(140 141 0.00028748 1)
4(141 142 0.00028748 1)
4(142 12 0.00028748 1)
4(6 143 0.000272727 1)
4(143 144 0.000272727 1)
4(144 145 0.000272727 1)
4(145 146 0.000272727 1)
4(146 147 0.000272727 1)
4(147 148 0.000272727 1)
4(148 149 0.000272727 1)
4(149 150 0.000272727 1)
4(150 151 0.000272727 1)
4(151 152 0.000272727 1)
4(152 13 0.000272727 1)
4(7 153 0.000286705 1)
4(153 154 0.000286705 1)
4(154 155 0.000286705 1)
4(155 156 0.000286705 1)
4(156 157 0.000286705 1)
4(157 158 0.000286705 1)
4(158 159 0.000286705 1)
4(159 160 0.000286705 1)
4(160 161 0.000286705 1)
4(161 162 0.000286705 1)
4(162 163 0.000286705 1)
4(163 164 0.000286705 1)
4(164 165 0.000286705 1)
4(165 166 0.000286705 1)
4(166 167 0.000286705 1)
4(167 168 0.000286705 1)
4(168 169 0.000286705 1)
4(169 170 0.000286705 1)
4(170 171 0.000286705 1)
4(171 172 0.000286705 1)
4(172 14 0.000286705 1)
4(7 173 0.000285714 1)
4(173 174 0.000285714 1)
4(174 175 0.000285714 1)
4(175 176 0.000285714 1)
4(176 177 0.000285714 1)
4(177 178 0.000285714 1)
4(178 179 0.000285714 1)
4(179 180 0.000285714 1)
4(180 181 0.000285714 1)
4(181 182 0.000285714 1)
4(182 183 0.000285714 1)
4(183 184 0.000285714 1)
4(184 185 0.000285714 1)
4(185 186 0.000285714 1)
4(186 187 0.000285714 1)
4(187 188 0.000285714 1)
4(188 189 0.000285714 1)
4(189 190 0.000285714 1)
4(190 191 0.000285714 1)
4(191 192 0.000285714 1)
4(192 15 0.000285714 1)
)
;

points

193
(
(0.001 0.0015 0.0035)
(0.005 0.0015 0.0035)
(0.008 0.0015 0.0055)
(0.008 0.0015 0.0015)
(0.011 0.0015 0.006)
(0.011 0.0015 0.005)
(0.011 0.0015 0.002)
(0.011 0.0015 0.001)
(0.014 0.0015 0.006)
(0.014 0.0015 0.0055)
(0.014 0.0015 0.005)
(0.014 0.0015 0.004)
(0.014 0.0015 0.003)
(0.014 0.0015 0.002)
(0.017 0.0015 0.0015)
(0.017 0.0015 0.001)
(0.00128571 0.0015 0.0035)
(0.00157143 0.0015 0.0035)
(0.00185714 0.0015 0.0035)
(0.00214286 0.0015 0.0035)
(0.00242857 0.0015 0.0035)
(0.00271429 0.0015 0.0035)
(0.003 0.0015 0.0035)
(0.00328571 0.0015 0.0035)
(0.00357143 0.0015 0.0035)
(0.00385714 0.0015 0.0035)
(0.00414286 0.0015 0.0035)
(0.00442857 0.0015 0.0035)
(0.00471429 0.0015 0.0035)
(0.00523077 0.0015 0.00365385)
(0.00546154 0.0015 0.00380769)
(0.00569231 0.0015 0.00396154)
(0.00592308 0.0015 0.00411538)
(0.00615385 0.0015 0.00426923)
(0.00638462 0.0015 0.00442308)
(0.00661538 0.0015 0.00457692)
(0.00684615 0.0015 0.00473077)
(0.00707692 0.0015 0.00488462)
(0.00730769 0.0015 0.00503846)
(0.00753846 0.0015 0.00519231)
(0.00776923 0.0015 0.00534615)
(0.00827273 0.0015 0.00554545)
(0.00854545 0.0015 0.00559091)
(0.00881818 0.0015 0.00563636)
(0.00909091 0.0015 0.00568182)
(0.00936364 0.0015 0.00572727)
(0.00963636 0.0015 0.00577273)
(0.00990909 0.0015 0.00581818)
(0.0101818 0.0015 0.00586364)
(0.0104545 0.0015 0.00590909)
(0.0107273 0.0015 0.00595455)
(0.00827273 0.0015 0.00545455)
(0.00854545 0.0015 0.00540909)
(0.00881818 0.0015 0.00536364)
(0.00909091 0.0015 0.00531818)
(0.00936364 0.0015 0.00527273)
(0.00963636 0.0015 0.00522727)
(0.00990909 0.0015 0.00518182)
(0.0101818 0.0015 0.00513636)
(0.0104545 0.0015 0.00509091)
(0.0107273 0.0015 0.00504545)
(0.00523077 0.0015 0.00334615)
(0.00546154 0.0015 0.00319231)
(0.00569231 0.0015 0.00303846)
(0.00592308 0.0015 0.00288462)
(0.00615385 0.0015 0.00273077)
(0.00638462 0.0015 0.00257692)
(0.00661538 0.0015 0.00242308)
(0.00684615 0.0015 0.00226923)
(0.00707692 0.0015 0.00211538)
(0.00730769 0.0015 0.00196154)
(0.00753846 0.0015 0.00180769)
(0.00776923 0.0015 0.00165385)
(0.00827273 0.0015 0.00154545)
(0.00854545 0.0015 0.00159091)
(0.00881818 0.0015 0.00163636)
(0.00909091 0.0015 0.00168182)
(0.00936364 0.0015 0.00172727)
(0.00963636 0.0015 0.00177273)
(0.00990909 0.0015 0.00181818)
(0.0101818 0.0015 0.00186364)
(0.0104545 0.0015 0.00190909)
(0.0107273 0.0015 0.00195455)
(0.00827273 0.0015 0.00145455)
(0.00854545 0.0015 0.00140909)
(0.00881818 0.0015 0.00136364)
(0.00909091 0.0015 0.00131818)
(0.00936364 0.0015 0.00127273)
(0.00963636 0.0015 0.00122727)
(0.00990909 0.0015 0.00118182)
(0.0101818 0.0015 0.00113636)
(0.0104545 0.0015 0.00109091)
(0.0107273 0.0015 0.00104545)
(0.0112727 0.0015 0.006)
(0.0115455 0.0015 0.006)
(0.0118182 0.0015 0.006)
(0.0120909 0.0015 0.006)
(0.0123636 0.0015 0.006)
(0.0126364 0.0015 0.006)
(0.0129091 0.0015 0.006)
(0.0131818 0.0015 0.006)
(0.0134545 0.0015 0.006)
(0.0137273 0.0015 0.006)
(0.0112727 0.0015 0.00595455)
(0.0115455 0.0015 0.00590909)
(0.0118182 0.0015 0.00586364)
(0.0120909 0.0015 0.00581818)
(0.0123636 0.0015 0.00577273)
(0.0126364 0.0015 0.00572727)
(0.0129091 0.0015 0.00568182)
(0.0131818 0.0015 0.00563636)
(0.0134545 0.0015 0.00559091)
(0.0137273 0.0015 0.00554545)
(0.0112727 0.0015 0.005)
(0.0115455 0.0015 0.005)
(0.0118182 0.0015 0.005)
(0.0120909 0.0015 0.005)
(0.0123636 0.0015 0.005)
(0.0126364 0.0015 0.005)
(0.0129091 0.0015 0.005)
(0.0131818 0.0015 0.005)
(0.0134545 0.0015 0.005)
(0.0137273 0.0015 0.005)
(0.0112727 0.0015 0.00490909)
(0.0115455 0.0015 0.00481818)
(0.0118182 0.0015 0.00472727)
(0.0120909 0.0015 0.00463636)
(0.0123636 0.0015 0.00454545)
(0.0126364 0.0015 0.00445455)
(0.0129091 0.0015 0.00436364)
(0.0131818 0.0015 0.00427273)
(0.0134545 0.0015 0.00418182)
(0.0137273 0.0015 0.00409091)
(0.0112727 0.0015 0.00209091)
(0.0115455 0.0015 0.00218182)
(0.0118182 0.0015 0.00227273)
(0.0120909 0.0015 0.00236364)
(0.0123636 0.0015 0.00245455)
(0.0126364 0.0015 0.00254545)
(0.0129091 0.0015 0.00263636)
(0.0131818 0.0015 0.00272727)
(0.0134545 0.0015 0.00281818)
(0.0137273 0.0015 0.00290909)
(0.0112727 0.0015 0.002)
(0.0115455 0.0015 0.002)
(0.0118182 0.0015 0.002)
(0.0120909 0.0015 0.002)
(0.0123636 0.0015 0.002)
(0.0126364 0.0015 0.002)
(0.0129091 0.0015 0.002)
(0.0131818 0.0015 0.002)
(0.0134545 0.0015 0.002)
(0.0137273 0.0015 0.002)
(0.0112857 0.0015 0.00102381)
(0.0115714 0.0015 0.00104762)
(0.0118571 0.0015 0.00107143)
(0.0121429 0.0015 0.00109524)
(0.0124286 0.0015 0.00111905)
(0.0127143 0.0015 0.00114286)
(0.013 0.0015 0.00116667)
(0.0132857 0.0015 0.00119048)
(0.0135714 0.0015 0.00121429)
(0.0138571 0.0015 0.0012381)
(0.0141429 0.0015 0.0012619)
(0.0144286 0.0015 0.00128571)
(0.0147143 0.0015 0.00130952)
(0.015 0.0015 0.00133333)
(0.0152857 0.0015 0.00135714)
(0.0155714 0.0015 0.00138095)
(0.0158571 0.0015 0.00140476)
(0.0161429 0.0015 0.00142857)
(0.0164286 0.0015 0.00145238)
(0.0167143 0.0015 0.00147619)
(0.0112857 0.0015 0.001)
(0.0115714 0.0015 0.001)
(0.0118571 0.0015 0.001)
(0.0121429 0.0015 0.001)
(0.0124286 0.0015 0.001)
(0.0127143 0.0015 0.001)
(0.013 0.0015 0.001)
(0.0132857 0.0015 0.001)
(0.0135714 0.0015 0.001)
(0.0138571 0.0015 0.001)
(0.0141429 0.0015 0.001)
(0.0144286 0.0015 0.001)
(0.0147143 0.0015 0.001)
(0.015 0.0015 0.001)
(0.0152857 0.0015 0.001)
(0.0155714 0.0015 0.001)
(0.0158571 0.0015 0.001)
(0.0161429 0.0015 0.001)
(0.0164286 0.0015 0.001)
(0.0167143 0.0015 0.001)
)
;

edges

192
(
2(0 16)
2(16 17)
2(17 18)
2(18 19)
2(19 20)
2(20 21)
2(21 22)
2(22 23)
2(23 24)
2(24 25)
2(25 26)
2(26 27)
2(27 28)
2(28 1)
2(1 29)
2(29 30)
2(30 31)
2(31 32)
2(32 33)
2(33 34)
2(34 35)
2(35 36)
2(36 37)
2(37 38)
2(38 39)
2(39 40)
2(40 2)
2(2 41)
2(41 42)
2(42 43)
2(43 44)
2(44 45)
2(45 46)
2(46 47)
2(47 48)
2(48 49)
2(49 50)
2(50 4)
2(2 51)
2(51 52)
2(52 53)
2(53 54)
2(54 55)
2(55 56)
2(56 57)
2(57 58)
2(58 59)
2(59 60)
2(60 5)
2(1 61)
2(61 62)
2(62 63)
2(63 64)
2(64 65)
2(65 66)
2(66 67)
2(67 68)
2(68 69)
2(69 70)
2(70 71)
2(71 72)
2(72 3)
2(3 73)
2(73 74)
2(74 75)
2(75 76)
2(76 77)
2(77 78)
2(78 79)
2(79 80)
2(80 81)
2(81 82)
2(82 6)
2(3 83)
2(83 84)
2(84 85)
2(85 86)
2(86 87)
2(87 88)
2(88 89)
2(89 90)
2(90 91)
2(91 92)
2(92 7)
2(4 93)
2(93 94)
2(94 95)
2(95 96)
2(96 97)
2(97 98)
2(98 99)
2(99 100)
2(100 101)
2(101 102)
2(102 8)
2(4 103)
2(103 104)
2(104 105)
2(105 106)
2(106 107)
2(107 108)
2(108 109)
2(109 110)
2(110 111)
2(111 112)
2(112 9)
2(5 113)
2(113 114)
2(114 115)
2(115 116)
2(116 117)
2(117 118)
2(118 119)
2(119 120)
2(120 121)
2(121 122)
2(122 10)
2(5 123)
2(123 124)
2(124 125)
2(125 126)
2(126 127)
2(127 128)
2(128 129)
2(129 130)
2(130 131)
2(131 132)
2(132 11)
2(6 133)
2(133 134)
2(134 135)
2(135 136)
2(136 137)
2(137 138)
2(138 139)
2(139 140)
2(140 141)
2(141 142)
2(142 12)
2(6 143)
2(143 144)
2(144 145)
2(145 146)
2(146 147)
2(147 148)
2(148 149)
2(149 150)
2(150 151)
2(151 152)
2(152 13)
2(7 153)
2(153 154)
2(154 155)
2(155 156)
2(156 157)
2(157 158)
2(158 159)
2(159 160)
2(160 161)
2(161 162)
2(162 163)
2(163 164)
2(164 165)
2(165 166)
2(166 167)
2(167 168)
2(168 169)
2(169 170)
2(170 171)
2(171 172)
2(172 14)
2(7 173)
2(173 174)
2(174 175)
2(175 176)
2(176 177)
2(177 178)
2(178 179)
2(179 180)
2(180 181)
2(181 182)
2(182 183)
2(183 184)
2(184 185)
2(185 186)
2(186 187)
2(187 188)
2(188 189)
2(189 190)
2(190 191)
2(191 192)
2(192 15)
)
;

edgeVtkCellMap

192
(
0
1
2
3
4
5
6
7
8
9
10
11
12
13
14
15
16
17
18
19
20
21
22
23
24
25
26
27
28
29
30
31
32
33
34
35
36
37
38
39
40
41
42
43
44
45
46
47
48
49
50
51
52
53
54
55
56
57
58
59
60
61
62
63
64
65
66
67
68
69
70
71
72
73
74
75
76
77
78
79
80
81
82
83
84
85
86
87
88
89
90
91
92
93
94
95
96
97
98
99
100
101
102
103
104
105
106
107
108
109
110
111
112
113
114
115
116
117
118
119
120
121
122
123
124
125
126
127
128
129
130
131
132
133
134
135
136
137
138
139
140
141
142
143
144
145
146
147
148
149
150
151
152
153
154
155
156
157
158
159
160
161
162
163
164
165
166
167
168
169
170
171
172
173
174
175
176
177
178
179
180
181
182
183
184
185
186
187
188
189
190
191
)
;

edgeLength

192
(
0.000285714
0.000285714
0.000285714
0.000285714
0.000285714
0.000285714
0.000285714
0.000285714
0.000285714
0.000285714
0.000285714
0.000285714
0.000285714
0.000285714
0.00027735
0.00027735
0.00027735
0.00027735
0.00027735
0.00027735
0.00027735
0.00027735
0.00027735
0.00027735
0.00027735
0.00027735
0.00027735
0.000276489
0.000276489
0.000276489
0.000276489
0.000276489
0.000276489
0.000276489
0.000276489
0.000276489
0.000276489
0.000276489
0.000276489
0.000276489
0.000276489
0.000276489
0.000276489
0.000276489
0.000276489
0.000276489
0.000276489
0.000276489
0.000276489
0.00027735
0.00027735
0.00027735
0.00027735
0.00027735
0.00027735
0.00027735
0.00027735
0.00027735
0.00027735
0.00027735
0.00027735
0.00027735
0.000276489
0.000276489
0.000276489
0.000276489
0.000276489
0.000276489
0.000276489
0.000276489
0.000276489
0.000276489
0.000276489
0.000276489
0.000276489
0.000276489
0.000276489
0.000276489
0.000276489
0.000276489
0.000276489
0.000276489
0.000276489
0.000276489
0.000272727
0.000272727
0.000272727
0.000272727
0.000272727
0.000272727
0.000272727
0.000272727
0.000272727
0.000272727
0.000272727
0.000276489
0.000276489
0.000276489
0.000276489
0.000276489
0.000276489
0.000276489
0.000276489
0.000276489
0.000276489
0.000276489
0.000272727
0.000272727
0.000272727
0.000272727
0.000272727
0.000272727
0.000272727
0.000272727
0.000272727
0.000272727
0.000272727
0.00028748
0.00028748
0.00028748
0.00028748
0.00028748
0.00028748
0.00028748
0.00028748
0.00028748
0.00028748
0.00028748
0.00028748
0.00028748
0.00028748
0.00028748
0.00028748
0.00028748
0.00028748
0.00028748
0.00028748
0.00028748
0.00028748
0.000272727
0.000272727
0.000272727
0.000272727
0.000272727
0.000272727
0.000272727
0.000272727
0.000272727
0.000272727
0.000272727
0.000286705
0.000286705
0.000286705
0.000286705
0.000286705
0.000286705
0.000286705
0.000286705
0.000286705
0.000286705
0.000286705
0.000286705
0.000286705
0.000286705
0.000286705
0.000286705
0.000286705
0.000286705
0.000286705
0.000286705
0.000286705
0.000285714
0.000285714
0.000285714
0.000285714
0.000285714
0.000285714
0.000285714
0.000285714
0.000285714
0.000285714
0.000285714
0.000285714
0.000285714
0.000285714
0.000285714
0.000285714
0.000285714
0.000285714
0.000285714
0.000285714
0.000285714
)
;

endpointNodes
9(0 8 9 10 11 12 13 14 15);

pointFields
{
label
{
        nodeRole
        
193
(
1
0
0
0
0
0
0
0
2
2
2
2
2
2
2
2
0
0
0
0
0
0
0
0
0
0
0
0
0
0
0
0
0
0
0
0
0
0
0
0
0
0
0
0
0
0
0
0
0
0
0
0
0
0
0
0
0
0
0
0
0
0
0
0
0
0
0
0
0
0
0
0
0
0
0
0
0
0
0
0
0
0
0
0
0
0
0
0
0
0
0
0
0
0
0
0
0
0
0
0
0
0
0
0
0
0
0
0
0
0
0
0
0
0
0
0
0
0
0
0
0
0
0
0
0
0
0
0
0
0
0
0
0
0
0
0
0
0
0
0
0
0
0
0
0
0
0
0
0
0
0
0
0
0
0
0
0
0
0
0
0
0
0
0
0
0
0
0
0
0
0
0
0
0
0
0
0
0
0
0
0
0
0
0
0
0
0
0
0
0
0
0
0
)
;
}
scalar
{
}
vector
{
}
sphericalTensor
{
}
symmTensor
{
}
tensor
{
}
};

edgeFields
{
label
{
        originalEdgeId
        (
            0
            0
            0
            0
            0
            0
            0
            0
            0
            0
            0
            0
            0
            0
            1
            1
            1
            1
            1
            1
            1
            1
            1
            1
            1
            1
            1
            2
            2
            2
            2
            2
            2
            2
            2
            2
            2
            2
            3
            3
            3
            3
            3
            3
            3
            3
            3
            3
            3
            4
            4
            4
            4
            4
            4
            4
            4
            4
            4
            4
            4
            4
            5
            5
            5
            5
            5
            5
            5
            5
            5
            5
            5
            6
            6
            6
            6
            6
            6
            6
            6
            6
            6
            6
            7
            7
            7
            7
            7
            7
            7
            7
            7
            7
            7
            8
            8
            8
            8
            8
            8
            8
            8
            8
            8
            8
            9
            9
            9
            9
            9
            9
            9
            9
            9
            9
            9
            10
            10
            10
            10
            10
            10
            10
            10
            10
            10
            10
            11
            11
            11
            11
            11
            11
            11
            11
            11
            11
            11
            12
            12
            12
            12
            12
            12
            12
            12
            12
            12
            12
            13
            13
            13
            13
            13
            13
            13
            13
            13
            13
            13
            13
            13
            13
            13
            13
            13
            13
            13
            13
            13
            14
            14
            14
            14
            14
            14
            14
            14
            14
            14
            14
            14
            14
            14
            14
            14
            14
            14
            14
            14
            14
        );
}
scalar
{
        conductance
        (
            1
            1
            1
            1
            1
            1
            1
            1
            1
            1
            1
            1
            1
            1
            1
            1
            1
            1
            1
            1
            1
            1
            1
            1
            1
            1
            1
            1
            1
            1
            1
            1
            1
            1
            1
            1
            1
            1
            1
            1
            1
            1
            1
            1
            1
            1
            1
            1
            1
            1
            1
            1
            1
            1
            1
            1
            1
            1
            1
            1
            1
            1
            1
            1
            1
            1
            1
            1
            1
            1
            1
            1
            1
            1
            1
            1
            1
            1
            1
            1
            1
            1
            1
            1
            1
            1
            1
            1
            1
            1
            1
            1
            1
            1
            1
            1
            1
            1
            1
            1
            1
            1
            1
            1
            1
            1
            1
            1
            1
            1
            1
            1
            1
            1
            1
            1
            1
            1
            1
            1
            1
            1
            1
            1
            1
            1
            1
            1
            1
            1
            1
            1
            1
            1
            1
            1
            1
            1
            1
            1
            1
            1
            1
            1
            1
            1
            1
            1
            1
            1
            1
            1
            1
            1
            1
            1
            1
            1
            1
            1
            1
            1
            1
            1
            1
            1
            1
            1
            1
            1
            1
            1
            1
            1
            1
            1
            1
            1
            1
            1
            1
            1
            1
            1
            1
            1
            1
            1
            1
            1
            1
            1
        );
        diffusivity
        (
            1
            1
            1
            1
            1
            1
            1
            1
            1
            1
            1
            1
            1
            1
            1
            1
            1
            1
            1
            1
            1
            1
            1
            1
            1
            1
            1
            1
            1
            1
            1
            1
            1
            1
            1
            1
            1
            1
            1
            1
            1
            1
            1
            1
            1
            1
            1
            1
            1
            1
            1
            1
            1
            1
            1
            1
            1
            1
            1
            1
            1
            1
            1
            1
            1
            1
            1
            1
            1
            1
            1
            1
            1
            1
            1
            1
            1
            1
            1
            1
            1
            1
            1
            1
            1
            1
            1
            1
            1
            1
            1
            1
            1
            1
            1
            1
            1
            1
            1
            1
            1
            1
            1
            1
            1
            1
            1
            1
            1
            1
            1
            1
            1
            1
            1
            1
            1
            1
            1
            1
            1
            1
            1
            1
            1
            1
            1
            1
            1
            1
            1
            1
            1
            1
            1
            1
            1
            1
            1
            1
            1
            1
            1
            1
            1
            1
            1
            1
            1
            1
            1
            1
            1
            1
            1
            1
            1
            1
            1
            1
            1
            1
            1
            1
            1
            1
            1
            1
            1
            1
            1
            1
            1
            1
            1
            1
            1
            1
            1
            1
            1
            1
            1
            1
            1
            1
            1
            1
            1
            1
            1
            1
        );
        radius
        (
            0.0002
            0.0002
            0.0002
            0.0002
            0.0002
            0.0002
            0.0002
            0.0002
            0.0002
            0.0002
            0.0002
            0.0002
            0.0002
            0.0002
            0.0002
            0.0002
            0.0002
            0.0002
            0.0002
            0.0002
            0.0002
            0.0002
            0.0002
            0.0002
            0.0002
            0.0002
            0.0002
            0.0002
            0.0002
            0.0002
            0.0002
            0.0002
            0.0002
            0.0002
            0.0002
            0.0002
            0.0002
            0.0002
            0.0002
            0.0002
            0.0002
            0.0002
            0.0002
            0.0002
            0.0002
            0.0002
            0.0002
            0.0002
            0.0002
            0.0002
            0.0002
            0.0002
            0.0002
            0.0002
            0.0002
            0.0002
            0.0002
            0.0002
            0.0002
            0.0002
            0.0002
            0.0002
            0.0002
            0.0002
            0.0002
            0.0002
            0.0002
            0.0002
            0.0002
            0.0002
            0.0002
            0.0002
            0.0002
            0.0002
            0.0002
            0.0002
            0.0002
            0.0002
            0.0002
            0.0002
            0.0002
            0.0002
            0.0002
            0.0002
            0.0002
            0.0002
            0.0002
            0.0002
            0.0002
            0.0002
            0.0002
            0.0002
            0.0002
            0.0002
            0.0002
            0.0002
            0.0002
            0.0002
            0.0002
            0.0002
            0.0002
            0.0002
            0.0002
            0.0002
            0.0002
            0.0002
            0.0002
            0.0002
            0.0002
            0.0002
            0.0002
            0.0002
            0.0002
            0.0002
            0.0002
            0.0002
            0.0002
            0.0002
            0.0002
            0.0002
            0.0002
            0.0002
            0.0002
            0.0002
            0.0002
            0.0002
            0.0002
            0.0002
            0.0002
            0.0002
            0.0002
            0.0002
            0.0002
            0.0002
            0.0002
            0.0002
            0.0002
            0.0002
            0.0002
            0.0002
            0.0002
            0.0002
            0.0002
            0.0002
            0.0002
            0.0002
            0.0002
            0.0002
            0.0002
            0.0002
            0.0002
            0.0002
            0.0002
            0.0002
            0.0002
            0.0002
            0.0002
            0.0002
            0.0002
            0.0002
            0.0002
            0.0002
            0.0002
            0.0002
            0.0002
            0.0002
            0.0002
            0.0002
            0.0002
            0.0002
            0.0002
            0.0002
            0.0002
            0.0002
            0.0002
            0.0002
            0.0002
            0.0002
            0.0002
            0.0002
            0.0002
            0.0002
            0.0002
            0.0002
            0.0002
            0.0002
            0.0002
            0.0002
            0.0002
            0.0002
            0.0002
            0.0002
        );
}
vector
{
}
sphericalTensor
{
}
symmTensor
{
}
tensor
{
}
};
