/*--------------------------------*- C++ -*----------------------------------*\
| cardiacFoam: the OpenFOAM heart project                                     |
| Version:     v0.1                                                           |
| Web:         https://cardiacFoam.github.io                                  |
| Disclaimer:  This offering is not approved or endorsed by OpenCFD Limited,  |
|              producer and distributor of the OpenFOAM software via          |
|              www.openfoam.com, and owner of the OPENFOAM® and OpenCFD®      |
|              trade marks.                                                   |
\*---------------------------------------------------------------------------*/
FoamFile
{
    version     2.0;
    format      ascii;
    class       dictionary;
    location    "constant";
    object      activeTensionProperties;
}
// * * * * * * * * * * * * * * * * * * * * * * * * * * * * * * * * * * * * * //

//activeTensionProperties

activeTensionModel    NiedererHunterSmith;

// Variables to print in terminal (active tension)

ActiveTensionModel_export (AV_Ca_i Ta AV_Tension AV_Q AV_J_TRPN);

ActiveTensionModel_debugPrint (AV_Ca_i AV_Tension AV_Q AV_J_TRPN);

// Model-specific coefficients (if required by that model)
//kTa                  8;
//initialTa            0.0;
