/*--------------------------------*- C++ -*----------------------------------*\
| cardiacFoam: the OpenFOAM heart project                                     |
| Version:     v0.1                                                           |
| Web:         https://cardiacFoam.github.io                                  |
\*---------------------------------------------------------------------------*/
FoamFile
{
    version     2.0;
    format      ascii;
    class       dictionary;
    object      blockMeshDict;
}
// * * * * * * * * * * * * * * * * * * * * * * * * * * * * * * * * * * * * * //

scale   0.001;

vertices
(
    (0 0 0)
    (20 0 0)
    (20 3 0)
    (0 3 0)
    (0 0 7)
    (20 0 7)
    (20 3 7)
    (0 3 7)
);

blocks
(
    // deltaX = 0.5 mm
    hex (0 1 2 3 4 5 6 7) (40 6 14) simpleGrading (1 1 1)
);

edges
(
);

boundary
(
    walls
    {
        type patch;
        faces
        (
            (3 7 6 2)
            (0 4 7 3)
            (2 6 5 1)
            (1 5 4 0)
            (0 3 2 1)
            (4 5 6 7)
        );
    }
);

mergePatchPairs
(
);

// ************************************************************************* //
