/*--------------------------------*- C++ -*----------------------------------*\
| cardiacFoam: the OpenFOAM heart project                                     |
| Version:     v0.1                                                           |
| Web:         https://cardiacFoam.github.io                                  |
\*---------------------------------------------------------------------------*/
FoamFile
{
    version     2.0;
    format      ascii;
    class       dictionary;
    location    "constant/electro";
    object      electroProperties;
}
// * * * * * * * * * * * * * * * * * * * * * * * * * * * * * * * * * * * * * //

electroModel    monoDomainElectro;

monoDomainElectroCoeffs
{
    solutionAlgorithm   explicit;
    infoFrequency       20;

    #include "cardiacProperties"
    #include "stimulusProtocol"
    #include "timeIntegrationProperties"
}

// ************************************************************************* //
