/*--------------------------------*- C++ -*----------------------------------*\
| =========                 |                                                 |
| \\      /  F ield         | OpenFOAM: The Open Source CFD Toolbox           |
|  \\    /   O peration     | Version:  v1912                                 |
|   \\  /    A nd           | Website:  www.openfoam.com                      |
|    \\/     M anipulation  |                                                 |
\*---------------------------------------------------------------------------*/
FoamFile
{
    version     2.0;
    format      ascii;
    class       dictionary;
    location    "constant";
    object      electroActivationProperties;
}
// * * * * * * * * * * * * * * * * * * * * * * * * * * * * * * * * * * * * * //

    // Specify the ionic model
     //ionicModel Courtemanche;
//ionicModel Gaur;
ionicModel  TNNP;


    //specify the type of tissue to model
tissue  mCells;
tissue  mCells;




    //Initial ODE step;
    initialODEStep 1e-6;

    // ODE solver
    //solver    RKF45;
   solver    Euler;

    // Maximum number of steps
    maxSteps 1000000000;

    // Relative tolerance
    // Defaults to 1e-4
relTol 1e-6;

    // Absolute tolerance
    // Defaults to 1e-15
 absTol 1e-6;

    

// ************************************************************************* //
