/*--------------------------------*- C++ -*----------------------------------*\
| =========                 |                                                 |
| \\      /  F ield         | OpenFOAM: The Open Source CFD Toolbox           |
|  \\    /   O peration     | Version:  v1912                                 |
|   \\  /    A nd           | Website:  www.openfoam.com                      |
|    \\/     M anipulation  |                                                 |
\*---------------------------------------------------------------------------*/
FoamFile
{
    version     2.0;
    format      ascii;
    class       dictionary;
    location    "constant";
    object      electroActivationProperties;
}
// * * * * * * * * * * * * * * * * * * * * * * * * * * * * * * * * * * * * * //

// Data from literature

// Santiago et al 2018
// sigma = 3.9e-4 - 1.17e-3 [mS/cm]
// beta = 0.1 [1/cm]
// Cm = 1.0 [microF/cm2]
// Test 1 is slab, from Niederer et al
// 20 x 3 x 7 [mm]; stimulated at corner
// Compared element sizes of 0.5, 0.25, 0.125, 0.0625 [mm]
// Looked at activation time along length
// It took from 0.03 to 0.06 s for the wave to reach the 20 mm end

// Niederer et al 2011
// Stimulus applied to 1.5 mm cube in the corner
// deltaT = 0.05, 0.01 and 0.005 ms
// deltaX = 0.5, 0.2 and 0.1 mm

// Diffusion coefficient
// Equivalent to te conductivity/(beta*Cm)
// Bueno-Orovio uses 1.171 cm2/s for diffusion coefficient
// D       [0 2 -1 0 0 0 0] 0.0001171;

// Niederer et al 2011 transversely isotropic conductivity [S/m]
// sigmaX = 0.1334177215;
// sigmaY/Z = 0.01760617761;
conductivity [-1 -3 3 0 0 2 0] (0.1334177215 0 0 0.01760617761 0 0.01760617761);

// Cellular membrane surface-to-volume ratio [1/m]
beta    [0 -1 0 0 0 0 0] 140000;

// Cellular membrane capacitance [F/m^2]
Cm      [-1 -4 4 0 0 2 0] 0.01;

// External stimulus current location
stimulusLocationMin    (0 0 5.5e-3);
stimulusLocationMax    (1.5e-3 1.5e-3 7e-3);

// External stimulus current duration
stimulusDuration    [0 0 1 0 0 0 0] 2e-3;

// External stimulus current intensity [A/m^2]
// Per A/m^2 is calculated as A/m^3 * beta (above)
//stimulusIntensity   [0 -2 0 0 0 1 0] 0.000000357142857;
// External stimulus current intensity [A/m^3]
// 50000 micro A/cm3 == 50000 A/m3
stimulusIntensity   [0 -3 0 0 0 1 0] 50000;

ionicModelCoeffs
{
    // Monitor cell index
    // Ionic data for this cell is written to "monitorFile"
    monitorID 3320;

    // ODE solver
    //solver    Euler;
    solver    RKF45;

    // Gating variable intial values
    initialV  1.0;
    initialW  1.0;
    initialS  0.0;

    // Parameters
    // From Bueno-Orovio corresponding to the Ten Tusscher ventricular model
    uO 0;
    uU 1.58;
    thetaV 0.3;
    thetaW 0.015;
    thetaVMinus 0.015;
    thetaO 0.006;
    tauV1Minus 60;
    tauV2Minus 1150;
    tauVPlus 1.4506;
    tauW1Minus 70;
    tauW2Minus 20;
    kWMinus 65;
    uWMinus 0.03;
    tauWPlus 280;
    tauFi 0.11;
    tauO1 6;
    tauO2 6;
    tauSo1 43;
    tauSo2 0.2;
    kSo 2;
    uSo 0.65;
    tauS1 2.7342;
    tauS2 3;
    kS 2.0994;
    uS 0.9087;
    tauSi 2.8723;
    tauWInfty 0.07;
    wInftyStar 0.94;
}

activeTensionModelCoeffs
{
    // ODE solver
    //solver    Euler;
    solver    RKF45;

    // Tension parameter
    kTa       1;

    // Monitor cell ID
    monitorID 0;
}

// ************************************************************************* //
