/*--------------------------------*- C++ -*----------------------------------*\
| =========                 |                                                 |
| \\      /  F ield         | OpenFOAM: The Open Source CFD Toolbox           |
|  \\    /   O peration     | Version:  v1912                                 |
|   \\  /    A nd           | Website:  www.openfoam.com                      |
|    \\/     M anipulation  |                                                 |
\*---------------------------------------------------------------------------*/
FoamFile
{
    version     2.0;
    format      ascii;
    class       dictionary;
    location    "constant";
    object      electroProperties;
}
// * * * * * * * * * * * * * * * * * * * * * * * * * * * * * * * * * * * * * //

electroModel monoDomainElectro;

monoDomainElectroCoeffs
{
    postProcess   false;

    chi   [0 -1 0 0 0 0 0] 140000;
    Cm    [-1 -4 4 0 0 2 0] 0.01;

    ionicModel    BuenoOrovio;
    tissue    epicardialCells;

    //ExportedVariables (Vm Iion);
    debugPrintVariables (Vm);

    solutionAlgorithm    explicit;
    solver RKF45;
    initialODEStep 1e-6;
    maxSteps 1000000000;

    monodomainStimulus
    {
        stimulusLocationMin (0 0 5.5e-3);
        stimulusLocationMax (1.5e-3 1.5e-3 7e-3);
        stimulusDuration [0 0 1 0 0 0 0] 2e-3;
        stimulusIntensity [0 -3 0 0 0 1 0] 50000;
        stimulusStartTime 0.0;
    }

    ECG
    {
        ecgModel pseudoECGElectro;

        pseudoECGElectroCoeffs
        {
            // Intracellular conductivity tensor [S/m]
            Gi      [-1 -3 3 0 0 2 0] (0.17 0 0  0.019 0  0.019);

            // Torso conductivity [S/m] (stored by the model, currently unused)
            sigmaT  [-1 -3 3 0 0 2 0] 0.24725;

            electrodes
            {
                V1 (-26.1184    -283.543    -70.0558);
                V2 ( 73.582     -278.089    -70.1427);
                V3 ( 85.1153    -276.414    -93.8405);
                V4 ( 99.7976    -269.695   -106.596);
                V5 (122.885     -253.215   -119.155);
                V6 (148.613     -227.84    -119.317);
            }
        }
    }
}

// ************************************************************************* //
