/*--------------------------------*- C++ -*----------------------------------*\
| =========                 |                                                 |
| \\      /  F ield         | OpenFOAM: The Open Source CFD Toolbox           |
|  \\    /   O peration     | Version:  v1912                                 |
|   \\  /    A nd           | Website:  www.openfoam.com                      |
|    \\/     M anipulation  |                                                 |
\*---------------------------------------------------------------------------*/
FoamFile
{
    version     2.0;
    format      ascii;
    class       dictionary;
    location    "constant";
    object      electroProperties;
}
// * * * * * * * * * * * * * * * * * * * * * * * * * * * * * * * * * * * * * //

electroModel monoDomainElectro;

monoDomainElectroCoeffs
{
  

    chi   [0 -1 0 0 0 0 0] 140000;
    Cm    [-1 -4 4 0 0 2 0] 0.01;
    conductivity [-1 -3 3 0 0 2 0] (0.133418 0 0 0.0176062 0 0.0176062);

    ionicModel    BuenoOrovio;
    tissue    epicardialCells;

    //ExportedVariables (Vm Iion);
    //debugPrintVariables (Vm);

    solutionAlgorithm    explicit;
    solver RKF45;
    initialODEStep 1e-6;
    maxSteps 1000000000;

    monodomainStimulus
    {
	stimulusLocationMin   (0.056852608  -0.15336858  -0.10743934);
	stimulusLocationMax   (0.06587787  -0.14457098  -0.10418919);
        stimulusDuration [0 0 1 0 0 0 0] 2e-3;
        stimulusIntensity [0 -3 0 0 0 1 0] 50000;
        stimulusStartTime 0.0;
    }

    ECG
    {
        ecgModel pseudoECGElectro;

        pseudoECGElectroCoeffs
        {
            sigmaT [-1 -3 3 0 0 2 0] 0.24725; // unused by pseudoECG for now
            electrodes
            {
                V1 (-0.0261184   -0.283543   -0.0700558);
                V2 ( 0.073582    -0.278089   -0.0701427);
                V3 ( 0.0851153   -0.276414   -0.0938405);
                V4 ( 0.0997976   -0.269695   -0.106596);
                V5 ( 0.122885    -0.253215   -0.119155);
                V6 ( 0.148613    -0.22784    -0.119317);
            }
        }
    }
}

// ************************************************************************* //
