/*--------------------------------*- C++ -*----------------------------------*\
| =========                 |                                                 |
| \\      /  F ield         | OpenFOAM: The Open Source CFD Toolbox           |
|  \\    /   O peration     | Version:  v2012                                 |
|   \\  /    A nd           | Website:  www.openfoam.com                      |
|    \\/     M anipulation  |                                                 |
\*---------------------------------------------------------------------------*/
FoamFile
{
    version     2.0;
    format      ascii;
    class       volScalarField;
    location    "constant";
    object      z;
}
// * * * * * * * * * * * * * * * * * * * * * * * * * * * * * * * * * * * * * //

dimensions      [0 1 0 0 0 0 0];


internalField   nonuniform List<scalar> 
3240
(
0.00402536
0.00402536
0.00402536
0.00402536
0.00402536
0.00402536
0.00402536
0.00402536
0.00402536
0.00402536
0.00402536
0.00402536
0.00402536
0.00402536
0.00402536
0.00402536
0.00402536
0.00402536
0.00402536
0.00402536
0.00402536
0.00402536
0.00402536
0.00402536
0.00402536
0.00402536
0.00402536
0.00402536
0.00402536
0.00402536
0.00402536
0.00402536
0.00402536
0.00402536
0.00402536
0.00402536
0.00402536
0.00402536
0.00402536
0.00402536
0.00402536
0.00402536
0.00402536
0.00402536
0.00402536
0.00402536
0.00402536
0.00402536
0.00402536
0.00402536
0.00402536
0.00402536
0.00402536
0.00402536
0.00402536
0.00402536
0.00402536
0.00402536
0.00402536
0.00402536
0.00402536
0.00402536
0.00402536
0.00402536
0.00402536
0.00402536
0.00402536
0.00402536
0.00402536
0.00402536
0.00402536
0.00402536
0.00402362
0.00402362
0.00402362
0.00402362
0.00402362
0.00402362
0.00402362
0.00402362
0.00402362
0.00402362
0.00402362
0.00402362
0.00402362
0.00402362
0.00402362
0.00402362
0.00402362
0.00402362
0.00402362
0.00402362
0.00402362
0.00402362
0.00402362
0.00402362
0.00402362
0.00402362
0.00402362
0.00402362
0.00402362
0.00402362
0.00402362
0.00402362
0.00402362
0.00402362
0.00402362
0.00402362
0.00402362
0.00402362
0.00402362
0.00402362
0.00402362
0.00402362
0.00402362
0.00402362
0.00402362
0.00402362
0.00402362
0.00402362
0.00402362
0.00402362
0.00402362
0.00402362
0.00402362
0.00402362
0.00402362
0.00402362
0.00402362
0.00402362
0.00402362
0.00402362
0.00402362
0.00402362
0.00402362
0.00402362
0.00402362
0.00402362
0.00402362
0.00402362
0.00402362
0.00402362
0.00402362
0.00402362
0.00402312
0.00402312
0.00402312
0.00402312
0.00402312
0.00402312
0.00402312
0.00402312
0.00402312
0.00402312
0.00402312
0.00402312
0.00402312
0.00402312
0.00402312
0.00402312
0.00402312
0.00402312
0.00402312
0.00402312
0.00402312
0.00402312
0.00402312
0.00402312
0.00402312
0.00402312
0.00402312
0.00402312
0.00402312
0.00402312
0.00402312
0.00402312
0.00402312
0.00402312
0.00402312
0.00402312
0.00402312
0.00402312
0.00402312
0.00402312
0.00402312
0.00402312
0.00402312
0.00402312
0.00402312
0.00402312
0.00402312
0.00402312
0.00402312
0.00402312
0.00402312
0.00402312
0.00402312
0.00402312
0.00402312
0.00402312
0.00402312
0.00402312
0.00402312
0.00402312
0.00402312
0.00402312
0.00402312
0.00402312
0.00402312
0.00402312
0.00402312
0.00402312
0.00402312
0.00402312
0.00402312
0.00402312
0.0020867
0.0020867
0.0020867
0.0020867
0.0020867
0.0020867
0.0020867
0.0020867
0.0020867
0.0020867
0.0020867
0.0020867
0.0020867
0.0020867
0.0020867
0.0020867
0.0020867
0.0020867
0.0020867
0.0020867
0.0020867
0.0020867
0.0020867
0.0020867
0.0020867
0.0020867
0.0020867
0.0020867
0.0020867
0.0020867
0.0020867
0.0020867
0.0020867
0.0020867
0.0020867
0.0020867
0.0020867
0.0020867
0.0020867
0.0020867
0.0020867
0.0020867
0.0020867
0.0020867
0.0020867
0.0020867
0.0020867
0.0020867
0.0020867
0.0020867
0.0020867
0.0020867
0.0020867
0.0020867
0.0020867
0.0020867
0.0020867
0.0020867
0.0020867
0.0020867
0.0020867
0.0020867
0.0020867
0.0020867
0.0020867
0.0020867
0.0020867
0.0020867
0.0020867
0.0020867
0.0020867
0.0020867
0.00208971
0.00208971
0.00208971
0.00208971
0.00208971
0.00208971
0.00208971
0.00208971
0.00208971
0.00208971
0.00208971
0.00208971
0.00208971
0.00208971
0.00208971
0.00208971
0.00208971
0.00208971
0.00208971
0.00208971
0.00208971
0.00208971
0.00208971
0.00208971
0.00208971
0.00208971
0.00208971
0.00208971
0.00208971
0.00208971
0.00208971
0.00208971
0.00208971
0.00208971
0.00208971
0.00208971
0.00208971
0.00208971
0.00208971
0.00208971
0.00208971
0.00208971
0.00208971
0.00208971
0.00208971
0.00208971
0.00208971
0.00208971
0.00208971
0.00208971
0.00208971
0.00208971
0.00208971
0.00208971
0.00208971
0.00208971
0.00208971
0.00208971
0.00208971
0.00208971
0.00208971
0.00208971
0.00208971
0.00208971
0.00208971
0.00208971
0.00208971
0.00208971
0.00208971
0.00208971
0.00208971
0.00208971
0.00209658
0.00209658
0.00209658
0.00209658
0.00209658
0.00209658
0.00209658
0.00209658
0.00209658
0.00209658
0.00209658
0.00209658
0.00209658
0.00209658
0.00209658
0.00209658
0.00209658
0.00209658
0.00209658
0.00209658
0.00209658
0.00209658
0.00209658
0.00209658
0.00209658
0.00209658
0.00209658
0.00209658
0.00209658
0.00209658
0.00209658
0.00209658
0.00209658
0.00209658
0.00209658
0.00209658
0.00209658
0.00209658
0.00209658
0.00209658
0.00209658
0.00209658
0.00209658
0.00209658
0.00209658
0.00209658
0.00209658
0.00209658
0.00209658
0.00209658
0.00209658
0.00209658
0.00209658
0.00209658
0.00209658
0.00209658
0.00209658
0.00209658
0.00209658
0.00209658
0.00209658
0.00209658
0.00209658
0.00209658
0.00209658
0.00209658
0.00209658
0.00209658
0.00209658
0.00209658
0.00209658
0.00209658
0.000151064
0.000151065
0.000151066
0.000151065
0.000151064
0.000151066
0.000151067
0.000151065
0.000151065
0.000151065
0.000151065
0.000151067
0.000151066
0.000151064
0.000151065
0.000151066
0.000151065
0.000151064
0.000151064
0.000151065
0.000151066
0.000151065
0.000151064
0.000151066
0.000151067
0.000151065
0.000151065
0.000151065
0.000151065
0.000151067
0.000151066
0.000151064
0.000151065
0.000151066
0.000151065
0.000151064
0.000151064
0.000151065
0.000151066
0.000151065
0.000151064
0.000151066
0.000151067
0.000151065
0.000151065
0.000151065
0.000151065
0.000151067
0.000151066
0.000151064
0.000151065
0.000151066
0.000151065
0.000151064
0.000151064
0.000151065
0.000151066
0.000151065
0.000151064
0.000151066
0.000151067
0.000151065
0.000151065
0.000151065
0.000151065
0.000151067
0.000151066
0.000151064
0.000151065
0.000151066
0.000151065
0.000151064
0.000175192
0.000175191
0.000175192
0.000175191
0.000175192
0.000175192
0.000175193
0.000175192
0.000175192
0.000175192
0.000175192
0.000175193
0.000175192
0.000175192
0.000175191
0.000175192
0.000175191
0.000175192
0.000175192
0.000175191
0.000175192
0.000175191
0.000175192
0.000175192
0.000175193
0.000175192
0.000175192
0.000175192
0.000175192
0.000175193
0.000175192
0.000175192
0.000175191
0.000175192
0.000175191
0.000175192
0.000175192
0.000175191
0.000175192
0.000175191
0.000175192
0.000175192
0.000175193
0.000175192
0.000175192
0.000175192
0.000175192
0.000175193
0.000175192
0.000175192
0.000175191
0.000175192
0.000175191
0.000175192
0.000175192
0.000175191
0.000175192
0.000175191
0.000175192
0.000175192
0.000175193
0.000175192
0.000175192
0.000175192
0.000175192
0.000175193
0.000175192
0.000175192
0.000175191
0.000175192
0.000175191
0.000175192
0.000205334
0.000205336
0.000205335
0.000205335
0.000205334
0.000205333
0.000205333
0.000205333
0.000205334
0.000205334
0.000205333
0.000205333
0.000205333
0.000205334
0.000205335
0.000205335
0.000205336
0.000205334
0.000205334
0.000205336
0.000205335
0.000205335
0.000205334
0.000205333
0.000205333
0.000205333
0.000205334
0.000205334
0.000205333
0.000205333
0.000205333
0.000205334
0.000205335
0.000205335
0.000205336
0.000205334
0.000205334
0.000205336
0.000205335
0.000205335
0.000205334
0.000205333
0.000205333
0.000205333
0.000205334
0.000205334
0.000205333
0.000205333
0.000205333
0.000205334
0.000205335
0.000205335
0.000205336
0.000205334
0.000205334
0.000205336
0.000205335
0.000205335
0.000205334
0.000205333
0.000205333
0.000205333
0.000205334
0.000205334
0.000205333
0.000205333
0.000205333
0.000205334
0.000205335
0.000205335
0.000205336
0.000205334
-0.00177698
-0.00177698
-0.00177699
-0.00177698
-0.00177698
-0.00177698
-0.00177699
-0.00177698
-0.00177698
-0.00177698
-0.00177698
-0.00177699
-0.00177698
-0.00177698
-0.00177698
-0.00177699
-0.00177698
-0.00177698
-0.00177698
-0.00177698
-0.00177699
-0.00177698
-0.00177698
-0.00177698
-0.00177699
-0.00177698
-0.00177698
-0.00177698
-0.00177698
-0.00177699
-0.00177698
-0.00177698
-0.00177698
-0.00177699
-0.00177698
-0.00177698
-0.00177698
-0.00177698
-0.00177699
-0.00177698
-0.00177698
-0.00177698
-0.00177699
-0.00177698
-0.00177698
-0.00177698
-0.00177698
-0.00177699
-0.00177698
-0.00177698
-0.00177698
-0.00177699
-0.00177698
-0.00177698
-0.00177698
-0.00177698
-0.00177699
-0.00177698
-0.00177698
-0.00177698
-0.00177699
-0.00177698
-0.00177698
-0.00177698
-0.00177698
-0.00177699
-0.00177698
-0.00177698
-0.00177698
-0.00177699
-0.00177698
-0.00177698
-0.00171589
-0.00171589
-0.00171589
-0.00171589
-0.00171589
-0.00171589
-0.00171589
-0.00171589
-0.00171589
-0.00171589
-0.00171589
-0.00171589
-0.00171589
-0.00171589
-0.00171589
-0.00171589
-0.00171589
-0.00171589
-0.00171589
-0.00171589
-0.00171589
-0.00171589
-0.00171589
-0.00171589
-0.00171589
-0.00171589
-0.00171589
-0.00171589
-0.00171589
-0.00171589
-0.00171589
-0.00171589
-0.00171589
-0.00171589
-0.00171589
-0.00171589
-0.00171589
-0.00171589
-0.00171589
-0.00171589
-0.00171589
-0.00171589
-0.00171589
-0.00171589
-0.00171589
-0.00171589
-0.00171589
-0.00171589
-0.00171589
-0.00171589
-0.00171589
-0.00171589
-0.00171589
-0.00171589
-0.00171589
-0.00171589
-0.00171589
-0.00171589
-0.00171589
-0.00171589
-0.00171589
-0.00171589
-0.00171589
-0.00171589
-0.00171589
-0.00171589
-0.00171589
-0.00171589
-0.00171589
-0.00171589
-0.00171589
-0.00171589
-0.00164707
-0.00164707
-0.00164707
-0.00164707
-0.00164707
-0.00164707
-0.00164707
-0.00164707
-0.00164707
-0.00164707
-0.00164707
-0.00164707
-0.00164707
-0.00164707
-0.00164707
-0.00164707
-0.00164707
-0.00164707
-0.00164707
-0.00164707
-0.00164707
-0.00164707
-0.00164707
-0.00164707
-0.00164707
-0.00164707
-0.00164707
-0.00164707
-0.00164707
-0.00164707
-0.00164707
-0.00164707
-0.00164707
-0.00164707
-0.00164707
-0.00164707
-0.00164707
-0.00164707
-0.00164707
-0.00164707
-0.00164707
-0.00164707
-0.00164707
-0.00164707
-0.00164707
-0.00164707
-0.00164707
-0.00164707
-0.00164707
-0.00164707
-0.00164707
-0.00164707
-0.00164707
-0.00164707
-0.00164707
-0.00164707
-0.00164707
-0.00164707
-0.00164707
-0.00164707
-0.00164707
-0.00164707
-0.00164707
-0.00164707
-0.00164707
-0.00164707
-0.00164707
-0.00164707
-0.00164707
-0.00164707
-0.00164707
-0.00164707
-0.00369304
-0.00369304
-0.00369304
-0.00369303
-0.00369304
-0.00369304
-0.00369304
-0.00369304
-0.00369304
-0.00369304
-0.00369304
-0.00369304
-0.00369304
-0.00369304
-0.00369303
-0.00369304
-0.00369304
-0.00369304
-0.00369304
-0.00369304
-0.00369304
-0.00369303
-0.00369304
-0.00369304
-0.00369304
-0.00369304
-0.00369304
-0.00369304
-0.00369304
-0.00369304
-0.00369304
-0.00369304
-0.00369303
-0.00369304
-0.00369304
-0.00369304
-0.00369304
-0.00369304
-0.00369304
-0.00369303
-0.00369304
-0.00369304
-0.00369304
-0.00369304
-0.00369304
-0.00369304
-0.00369304
-0.00369304
-0.00369304
-0.00369304
-0.00369303
-0.00369304
-0.00369304
-0.00369304
-0.00369304
-0.00369304
-0.00369304
-0.00369303
-0.00369304
-0.00369304
-0.00369304
-0.00369304
-0.00369304
-0.00369304
-0.00369304
-0.00369304
-0.00369304
-0.00369304
-0.00369303
-0.00369304
-0.00369304
-0.00369304
-0.00357992
-0.00357992
-0.00357992
-0.00357992
-0.00357992
-0.00357992
-0.00357992
-0.00357992
-0.00357992
-0.00357992
-0.00357992
-0.00357992
-0.00357992
-0.00357992
-0.00357992
-0.00357992
-0.00357992
-0.00357992
-0.00357992
-0.00357992
-0.00357992
-0.00357992
-0.00357992
-0.00357992
-0.00357992
-0.00357992
-0.00357992
-0.00357992
-0.00357992
-0.00357992
-0.00357992
-0.00357992
-0.00357992
-0.00357992
-0.00357992
-0.00357992
-0.00357992
-0.00357992
-0.00357992
-0.00357992
-0.00357992
-0.00357992
-0.00357992
-0.00357992
-0.00357992
-0.00357992
-0.00357992
-0.00357992
-0.00357992
-0.00357992
-0.00357992
-0.00357992
-0.00357992
-0.00357992
-0.00357992
-0.00357992
-0.00357992
-0.00357992
-0.00357992
-0.00357992
-0.00357992
-0.00357992
-0.00357992
-0.00357992
-0.00357992
-0.00357992
-0.00357992
-0.00357992
-0.00357992
-0.00357992
-0.00357992
-0.00357992
-0.00345779
-0.00345779
-0.00345779
-0.00345779
-0.00345779
-0.00345779
-0.00345778
-0.00345779
-0.00345779
-0.00345779
-0.00345779
-0.00345778
-0.00345779
-0.00345779
-0.00345779
-0.00345779
-0.00345779
-0.00345779
-0.00345779
-0.00345779
-0.00345779
-0.00345779
-0.00345779
-0.00345779
-0.00345778
-0.00345779
-0.00345779
-0.00345779
-0.00345779
-0.00345778
-0.00345779
-0.00345779
-0.00345779
-0.00345779
-0.00345779
-0.00345779
-0.00345779
-0.00345779
-0.00345779
-0.00345779
-0.00345779
-0.00345779
-0.00345778
-0.00345779
-0.00345779
-0.00345779
-0.00345779
-0.00345778
-0.00345779
-0.00345779
-0.00345779
-0.00345779
-0.00345779
-0.00345779
-0.00345779
-0.00345779
-0.00345779
-0.00345779
-0.00345779
-0.00345779
-0.00345778
-0.00345779
-0.00345779
-0.00345779
-0.00345779
-0.00345778
-0.00345779
-0.00345779
-0.00345779
-0.00345779
-0.00345779
-0.00345779
-0.00559245
-0.00559245
-0.00559245
-0.00559245
-0.00559245
-0.00559245
-0.00559245
-0.00559245
-0.00559245
-0.00559245
-0.00559245
-0.00559245
-0.00559245
-0.00559245
-0.00559245
-0.00559245
-0.00559245
-0.00559245
-0.00559245
-0.00559245
-0.00559245
-0.00559245
-0.00559245
-0.00559245
-0.00559245
-0.00559245
-0.00559245
-0.00559245
-0.00559245
-0.00559245
-0.00559245
-0.00559245
-0.00559245
-0.00559245
-0.00559245
-0.00559245
-0.00559245
-0.00559245
-0.00559245
-0.00559245
-0.00559245
-0.00559245
-0.00559245
-0.00559245
-0.00559245
-0.00559245
-0.00559245
-0.00559245
-0.00559245
-0.00559245
-0.00559245
-0.00559245
-0.00559245
-0.00559245
-0.00559245
-0.00559245
-0.00559245
-0.00559245
-0.00559245
-0.00559245
-0.00559245
-0.00559245
-0.00559245
-0.00559245
-0.00559245
-0.00559245
-0.00559245
-0.00559245
-0.00559245
-0.00559245
-0.00559245
-0.00559245
-0.00541316
-0.00541316
-0.00541316
-0.00541316
-0.00541316
-0.00541316
-0.00541316
-0.00541316
-0.00541316
-0.00541316
-0.00541316
-0.00541316
-0.00541316
-0.00541316
-0.00541316
-0.00541316
-0.00541316
-0.00541316
-0.00541316
-0.00541316
-0.00541316
-0.00541316
-0.00541316
-0.00541316
-0.00541316
-0.00541316
-0.00541316
-0.00541316
-0.00541316
-0.00541316
-0.00541316
-0.00541316
-0.00541316
-0.00541316
-0.00541316
-0.00541316
-0.00541316
-0.00541316
-0.00541316
-0.00541316
-0.00541316
-0.00541316
-0.00541316
-0.00541316
-0.00541316
-0.00541316
-0.00541316
-0.00541316
-0.00541316
-0.00541316
-0.00541316
-0.00541316
-0.00541316
-0.00541316
-0.00541316
-0.00541316
-0.00541316
-0.00541316
-0.00541316
-0.00541316
-0.00541316
-0.00541316
-0.00541316
-0.00541316
-0.00541316
-0.00541316
-0.00541316
-0.00541316
-0.00541316
-0.00541316
-0.00541316
-0.00541316
-0.00522399
-0.00522399
-0.00522399
-0.00522399
-0.00522399
-0.00522399
-0.00522399
-0.00522399
-0.00522399
-0.00522399
-0.00522399
-0.00522399
-0.00522399
-0.00522399
-0.00522399
-0.00522399
-0.00522399
-0.00522399
-0.00522399
-0.00522399
-0.00522399
-0.00522399
-0.00522399
-0.00522399
-0.00522399
-0.00522399
-0.00522399
-0.00522399
-0.00522399
-0.00522399
-0.00522399
-0.00522399
-0.00522399
-0.00522399
-0.00522399
-0.00522399
-0.00522399
-0.00522399
-0.00522399
-0.00522399
-0.00522399
-0.00522399
-0.00522399
-0.00522399
-0.00522399
-0.00522399
-0.00522399
-0.00522399
-0.00522399
-0.00522399
-0.00522399
-0.00522399
-0.00522399
-0.00522399
-0.00522399
-0.00522399
-0.00522399
-0.00522399
-0.00522399
-0.00522399
-0.00522399
-0.00522399
-0.00522399
-0.00522399
-0.00522399
-0.00522399
-0.00522399
-0.00522399
-0.00522399
-0.00522399
-0.00522399
-0.00522399
-0.00746964
-0.00746964
-0.00746964
-0.00746964
-0.00746964
-0.00746964
-0.00746964
-0.00746964
-0.00746964
-0.00746964
-0.00746964
-0.00746964
-0.00746964
-0.00746964
-0.00746964
-0.00746964
-0.00746964
-0.00746964
-0.00746964
-0.00746964
-0.00746964
-0.00746964
-0.00746964
-0.00746964
-0.00746964
-0.00746964
-0.00746964
-0.00746964
-0.00746964
-0.00746964
-0.00746964
-0.00746964
-0.00746964
-0.00746964
-0.00746964
-0.00746964
-0.00746964
-0.00746964
-0.00746964
-0.00746964
-0.00746964
-0.00746964
-0.00746964
-0.00746964
-0.00746964
-0.00746964
-0.00746964
-0.00746964
-0.00746964
-0.00746964
-0.00746964
-0.00746964
-0.00746964
-0.00746964
-0.00746964
-0.00746964
-0.00746964
-0.00746964
-0.00746964
-0.00746964
-0.00746964
-0.00746964
-0.00746964
-0.00746964
-0.00746964
-0.00746964
-0.00746964
-0.00746964
-0.00746964
-0.00746964
-0.00746964
-0.00746964
-0.00721121
-0.00721121
-0.0072112
-0.0072112
-0.00721121
-0.00721121
-0.00721121
-0.00721121
-0.0072112
-0.0072112
-0.00721121
-0.00721121
-0.00721121
-0.00721121
-0.0072112
-0.0072112
-0.00721121
-0.00721121
-0.00721121
-0.00721121
-0.0072112
-0.0072112
-0.00721121
-0.00721121
-0.00721121
-0.00721121
-0.0072112
-0.0072112
-0.00721121
-0.00721121
-0.00721121
-0.00721121
-0.0072112
-0.0072112
-0.00721121
-0.00721121
-0.00721121
-0.00721121
-0.0072112
-0.0072112
-0.00721121
-0.00721121
-0.00721121
-0.00721121
-0.0072112
-0.0072112
-0.00721121
-0.00721121
-0.00721121
-0.00721121
-0.0072112
-0.0072112
-0.00721121
-0.00721121
-0.00721121
-0.00721121
-0.0072112
-0.0072112
-0.00721121
-0.00721121
-0.00721121
-0.00721121
-0.0072112
-0.0072112
-0.00721121
-0.00721121
-0.00721121
-0.00721121
-0.0072112
-0.0072112
-0.00721121
-0.00721121
-0.00694242
-0.00694242
-0.00694242
-0.00694242
-0.00694242
-0.00694242
-0.00694242
-0.00694242
-0.00694242
-0.00694242
-0.00694242
-0.00694242
-0.00694242
-0.00694242
-0.00694242
-0.00694242
-0.00694242
-0.00694242
-0.00694242
-0.00694242
-0.00694242
-0.00694242
-0.00694242
-0.00694242
-0.00694242
-0.00694242
-0.00694242
-0.00694242
-0.00694242
-0.00694242
-0.00694242
-0.00694242
-0.00694242
-0.00694242
-0.00694242
-0.00694242
-0.00694242
-0.00694242
-0.00694242
-0.00694242
-0.00694242
-0.00694242
-0.00694242
-0.00694242
-0.00694242
-0.00694242
-0.00694242
-0.00694242
-0.00694242
-0.00694242
-0.00694242
-0.00694242
-0.00694242
-0.00694242
-0.00694242
-0.00694242
-0.00694242
-0.00694242
-0.00694242
-0.00694242
-0.00694242
-0.00694242
-0.00694242
-0.00694242
-0.00694242
-0.00694242
-0.00694242
-0.00694242
-0.00694242
-0.00694242
-0.00694242
-0.00694242
-0.0093176
-0.0093176
-0.0093176
-0.0093176
-0.0093176
-0.0093176
-0.0093176
-0.0093176
-0.0093176
-0.0093176
-0.0093176
-0.0093176
-0.0093176
-0.0093176
-0.0093176
-0.0093176
-0.0093176
-0.0093176
-0.0093176
-0.0093176
-0.0093176
-0.0093176
-0.0093176
-0.0093176
-0.0093176
-0.0093176
-0.0093176
-0.0093176
-0.0093176
-0.0093176
-0.0093176
-0.0093176
-0.0093176
-0.0093176
-0.0093176
-0.0093176
-0.0093176
-0.0093176
-0.0093176
-0.0093176
-0.0093176
-0.0093176
-0.0093176
-0.0093176
-0.0093176
-0.0093176
-0.0093176
-0.0093176
-0.0093176
-0.0093176
-0.0093176
-0.0093176
-0.0093176
-0.0093176
-0.0093176
-0.0093176
-0.0093176
-0.0093176
-0.0093176
-0.0093176
-0.0093176
-0.0093176
-0.0093176
-0.0093176
-0.0093176
-0.0093176
-0.0093176
-0.0093176
-0.0093176
-0.0093176
-0.0093176
-0.0093176
-0.00896858
-0.00896858
-0.00896858
-0.00896858
-0.00896858
-0.00896858
-0.00896858
-0.00896858
-0.00896858
-0.00896858
-0.00896858
-0.00896858
-0.00896858
-0.00896858
-0.00896858
-0.00896858
-0.00896858
-0.00896858
-0.00896858
-0.00896858
-0.00896858
-0.00896858
-0.00896858
-0.00896858
-0.00896858
-0.00896858
-0.00896858
-0.00896858
-0.00896858
-0.00896858
-0.00896858
-0.00896858
-0.00896858
-0.00896858
-0.00896858
-0.00896858
-0.00896858
-0.00896858
-0.00896858
-0.00896858
-0.00896858
-0.00896858
-0.00896858
-0.00896858
-0.00896858
-0.00896858
-0.00896858
-0.00896858
-0.00896858
-0.00896858
-0.00896858
-0.00896858
-0.00896858
-0.00896858
-0.00896858
-0.00896858
-0.00896858
-0.00896858
-0.00896858
-0.00896858
-0.00896858
-0.00896858
-0.00896858
-0.00896858
-0.00896858
-0.00896858
-0.00896858
-0.00896858
-0.00896858
-0.00896858
-0.00896858
-0.00896858
-0.00860914
-0.00860914
-0.00860914
-0.00860914
-0.00860914
-0.00860914
-0.00860914
-0.00860914
-0.00860914
-0.00860914
-0.00860914
-0.00860914
-0.00860914
-0.00860914
-0.00860914
-0.00860914
-0.00860914
-0.00860914
-0.00860914
-0.00860914
-0.00860914
-0.00860914
-0.00860914
-0.00860914
-0.00860914
-0.00860914
-0.00860914
-0.00860914
-0.00860914
-0.00860914
-0.00860914
-0.00860914
-0.00860914
-0.00860914
-0.00860914
-0.00860914
-0.00860914
-0.00860914
-0.00860914
-0.00860914
-0.00860914
-0.00860914
-0.00860914
-0.00860914
-0.00860914
-0.00860914
-0.00860914
-0.00860914
-0.00860914
-0.00860914
-0.00860914
-0.00860914
-0.00860914
-0.00860914
-0.00860914
-0.00860914
-0.00860914
-0.00860914
-0.00860914
-0.00860914
-0.00860914
-0.00860914
-0.00860914
-0.00860914
-0.00860914
-0.00860914
-0.00860914
-0.00860914
-0.00860914
-0.00860914
-0.00860914
-0.00860914
-0.0111269
-0.0111269
-0.0111269
-0.0111269
-0.0111269
-0.0111269
-0.0111269
-0.0111269
-0.0111269
-0.0111269
-0.0111269
-0.0111269
-0.0111269
-0.0111269
-0.0111269
-0.0111269
-0.0111269
-0.0111269
-0.0111269
-0.0111269
-0.0111269
-0.0111269
-0.0111269
-0.0111269
-0.0111269
-0.0111269
-0.0111269
-0.0111269
-0.0111269
-0.0111269
-0.0111269
-0.0111269
-0.0111269
-0.0111269
-0.0111269
-0.0111269
-0.0111269
-0.0111269
-0.0111269
-0.0111269
-0.0111269
-0.0111269
-0.0111269
-0.0111269
-0.0111269
-0.0111269
-0.0111269
-0.0111269
-0.0111269
-0.0111269
-0.0111269
-0.0111269
-0.0111269
-0.0111269
-0.0111269
-0.0111269
-0.0111269
-0.0111269
-0.0111269
-0.0111269
-0.0111269
-0.0111269
-0.0111269
-0.0111269
-0.0111269
-0.0111269
-0.0111269
-0.0111269
-0.0111269
-0.0111269
-0.0111269
-0.0111269
-0.0106777
-0.0106777
-0.0106777
-0.0106777
-0.0106777
-0.0106777
-0.0106777
-0.0106777
-0.0106777
-0.0106777
-0.0106777
-0.0106777
-0.0106777
-0.0106777
-0.0106777
-0.0106777
-0.0106777
-0.0106777
-0.0106777
-0.0106777
-0.0106777
-0.0106777
-0.0106777
-0.0106777
-0.0106777
-0.0106777
-0.0106777
-0.0106777
-0.0106777
-0.0106777
-0.0106777
-0.0106777
-0.0106777
-0.0106777
-0.0106777
-0.0106777
-0.0106777
-0.0106777
-0.0106777
-0.0106777
-0.0106777
-0.0106777
-0.0106777
-0.0106777
-0.0106777
-0.0106777
-0.0106777
-0.0106777
-0.0106777
-0.0106777
-0.0106777
-0.0106777
-0.0106777
-0.0106777
-0.0106777
-0.0106777
-0.0106777
-0.0106777
-0.0106777
-0.0106777
-0.0106777
-0.0106777
-0.0106777
-0.0106777
-0.0106777
-0.0106777
-0.0106777
-0.0106777
-0.0106777
-0.0106777
-0.0106777
-0.0106777
-0.0102184
-0.0102184
-0.0102184
-0.0102184
-0.0102184
-0.0102184
-0.0102184
-0.0102184
-0.0102184
-0.0102184
-0.0102184
-0.0102184
-0.0102184
-0.0102184
-0.0102184
-0.0102184
-0.0102184
-0.0102184
-0.0102184
-0.0102184
-0.0102184
-0.0102184
-0.0102184
-0.0102184
-0.0102184
-0.0102184
-0.0102184
-0.0102184
-0.0102184
-0.0102184
-0.0102184
-0.0102184
-0.0102184
-0.0102184
-0.0102184
-0.0102184
-0.0102184
-0.0102184
-0.0102184
-0.0102184
-0.0102184
-0.0102184
-0.0102184
-0.0102184
-0.0102184
-0.0102184
-0.0102184
-0.0102184
-0.0102184
-0.0102184
-0.0102184
-0.0102184
-0.0102184
-0.0102184
-0.0102184
-0.0102184
-0.0102184
-0.0102184
-0.0102184
-0.0102184
-0.0102184
-0.0102184
-0.0102184
-0.0102184
-0.0102184
-0.0102184
-0.0102184
-0.0102184
-0.0102184
-0.0102184
-0.0102184
-0.0102184
-0.0128836
-0.0128836
-0.0128836
-0.0128836
-0.0128836
-0.0128836
-0.0128836
-0.0128836
-0.0128836
-0.0128836
-0.0128836
-0.0128836
-0.0128836
-0.0128836
-0.0128836
-0.0128836
-0.0128836
-0.0128836
-0.0128836
-0.0128836
-0.0128836
-0.0128836
-0.0128836
-0.0128836
-0.0128836
-0.0128836
-0.0128836
-0.0128836
-0.0128836
-0.0128836
-0.0128836
-0.0128836
-0.0128836
-0.0128836
-0.0128836
-0.0128836
-0.0128836
-0.0128836
-0.0128836
-0.0128836
-0.0128836
-0.0128836
-0.0128836
-0.0128836
-0.0128836
-0.0128836
-0.0128836
-0.0128836
-0.0128836
-0.0128836
-0.0128836
-0.0128836
-0.0128836
-0.0128836
-0.0128836
-0.0128836
-0.0128836
-0.0128836
-0.0128836
-0.0128836
-0.0128836
-0.0128836
-0.0128836
-0.0128836
-0.0128836
-0.0128836
-0.0128836
-0.0128836
-0.0128836
-0.0128836
-0.0128836
-0.0128836
-0.0123273
-0.0123273
-0.0123272
-0.0123273
-0.0123273
-0.0123273
-0.0123273
-0.0123273
-0.0123273
-0.0123273
-0.0123273
-0.0123273
-0.0123273
-0.0123273
-0.0123273
-0.0123272
-0.0123273
-0.0123273
-0.0123273
-0.0123273
-0.0123272
-0.0123273
-0.0123273
-0.0123273
-0.0123273
-0.0123273
-0.0123273
-0.0123273
-0.0123273
-0.0123273
-0.0123273
-0.0123273
-0.0123273
-0.0123272
-0.0123273
-0.0123273
-0.0123273
-0.0123273
-0.0123272
-0.0123273
-0.0123273
-0.0123273
-0.0123273
-0.0123273
-0.0123273
-0.0123273
-0.0123273
-0.0123273
-0.0123273
-0.0123273
-0.0123273
-0.0123272
-0.0123273
-0.0123273
-0.0123273
-0.0123273
-0.0123272
-0.0123273
-0.0123273
-0.0123273
-0.0123273
-0.0123273
-0.0123273
-0.0123273
-0.0123273
-0.0123273
-0.0123273
-0.0123273
-0.0123273
-0.0123272
-0.0123273
-0.0123273
-0.0117614
-0.0117614
-0.0117614
-0.0117614
-0.0117614
-0.0117614
-0.0117614
-0.0117614
-0.0117614
-0.0117614
-0.0117614
-0.0117614
-0.0117614
-0.0117614
-0.0117614
-0.0117614
-0.0117614
-0.0117614
-0.0117614
-0.0117614
-0.0117614
-0.0117614
-0.0117614
-0.0117614
-0.0117614
-0.0117614
-0.0117614
-0.0117614
-0.0117614
-0.0117614
-0.0117614
-0.0117614
-0.0117614
-0.0117614
-0.0117614
-0.0117614
-0.0117614
-0.0117614
-0.0117614
-0.0117614
-0.0117614
-0.0117614
-0.0117614
-0.0117614
-0.0117614
-0.0117614
-0.0117614
-0.0117614
-0.0117614
-0.0117614
-0.0117614
-0.0117614
-0.0117614
-0.0117614
-0.0117614
-0.0117614
-0.0117614
-0.0117614
-0.0117614
-0.0117614
-0.0117614
-0.0117614
-0.0117614
-0.0117614
-0.0117614
-0.0117614
-0.0117614
-0.0117614
-0.0117614
-0.0117614
-0.0117614
-0.0117614
-0.0145661
-0.0145661
-0.0145661
-0.0145661
-0.0145661
-0.0145661
-0.0145661
-0.0145661
-0.0145661
-0.0145661
-0.0145661
-0.0145661
-0.0145661
-0.0145661
-0.0145661
-0.0145661
-0.0145661
-0.0145661
-0.0145661
-0.0145661
-0.0145661
-0.0145661
-0.0145661
-0.0145661
-0.0145661
-0.0145661
-0.0145661
-0.0145661
-0.0145661
-0.0145661
-0.0145661
-0.0145661
-0.0145661
-0.0145661
-0.0145661
-0.0145661
-0.0145661
-0.0145661
-0.0145661
-0.0145661
-0.0145661
-0.0145661
-0.0145661
-0.0145661
-0.0145661
-0.0145661
-0.0145661
-0.0145661
-0.0145661
-0.0145661
-0.0145661
-0.0145661
-0.0145661
-0.0145661
-0.0145661
-0.0145661
-0.0145661
-0.0145661
-0.0145661
-0.0145661
-0.0145661
-0.0145661
-0.0145661
-0.0145661
-0.0145661
-0.0145661
-0.0145661
-0.0145661
-0.0145661
-0.0145661
-0.0145661
-0.0145661
-0.0138993
-0.0138993
-0.0138993
-0.0138993
-0.0138993
-0.0138993
-0.0138993
-0.0138993
-0.0138993
-0.0138993
-0.0138993
-0.0138993
-0.0138993
-0.0138993
-0.0138993
-0.0138993
-0.0138993
-0.0138993
-0.0138993
-0.0138993
-0.0138993
-0.0138993
-0.0138993
-0.0138993
-0.0138993
-0.0138993
-0.0138993
-0.0138993
-0.0138993
-0.0138993
-0.0138993
-0.0138993
-0.0138993
-0.0138993
-0.0138993
-0.0138993
-0.0138993
-0.0138993
-0.0138993
-0.0138993
-0.0138993
-0.0138993
-0.0138993
-0.0138993
-0.0138993
-0.0138993
-0.0138993
-0.0138993
-0.0138993
-0.0138993
-0.0138993
-0.0138993
-0.0138993
-0.0138993
-0.0138993
-0.0138993
-0.0138993
-0.0138993
-0.0138993
-0.0138993
-0.0138993
-0.0138993
-0.0138993
-0.0138993
-0.0138993
-0.0138993
-0.0138993
-0.0138993
-0.0138993
-0.0138993
-0.0138993
-0.0138993
-0.0132241
-0.0132241
-0.0132241
-0.0132241
-0.0132241
-0.0132241
-0.0132241
-0.0132241
-0.0132241
-0.0132241
-0.0132241
-0.0132241
-0.0132241
-0.0132241
-0.0132241
-0.0132241
-0.0132241
-0.0132241
-0.0132241
-0.0132241
-0.0132241
-0.0132241
-0.0132241
-0.0132241
-0.0132241
-0.0132241
-0.0132241
-0.0132241
-0.0132241
-0.0132241
-0.0132241
-0.0132241
-0.0132241
-0.0132241
-0.0132241
-0.0132241
-0.0132241
-0.0132241
-0.0132241
-0.0132241
-0.0132241
-0.0132241
-0.0132241
-0.0132241
-0.0132241
-0.0132241
-0.0132241
-0.0132241
-0.0132241
-0.0132241
-0.0132241
-0.0132241
-0.0132241
-0.0132241
-0.0132241
-0.0132241
-0.0132241
-0.0132241
-0.0132241
-0.0132241
-0.0132241
-0.0132241
-0.0132241
-0.0132241
-0.0132241
-0.0132241
-0.0132241
-0.0132241
-0.0132241
-0.0132241
-0.0132241
-0.0132241
-0.016138
-0.016138
-0.016138
-0.016138
-0.016138
-0.016138
-0.016138
-0.016138
-0.016138
-0.016138
-0.016138
-0.016138
-0.016138
-0.016138
-0.016138
-0.016138
-0.016138
-0.016138
-0.016138
-0.016138
-0.016138
-0.016138
-0.016138
-0.016138
-0.016138
-0.016138
-0.016138
-0.016138
-0.016138
-0.016138
-0.016138
-0.016138
-0.016138
-0.016138
-0.016138
-0.016138
-0.016138
-0.016138
-0.016138
-0.016138
-0.016138
-0.016138
-0.016138
-0.016138
-0.016138
-0.016138
-0.016138
-0.016138
-0.016138
-0.016138
-0.016138
-0.016138
-0.016138
-0.016138
-0.016138
-0.016138
-0.016138
-0.016138
-0.016138
-0.016138
-0.016138
-0.016138
-0.016138
-0.016138
-0.016138
-0.016138
-0.016138
-0.016138
-0.016138
-0.016138
-0.016138
-0.016138
-0.0153635
-0.0153634
-0.0153634
-0.0153635
-0.0153635
-0.0153635
-0.0153634
-0.0153635
-0.0153634
-0.0153634
-0.0153635
-0.0153634
-0.0153635
-0.0153635
-0.0153635
-0.0153634
-0.0153634
-0.0153635
-0.0153635
-0.0153634
-0.0153634
-0.0153635
-0.0153635
-0.0153635
-0.0153634
-0.0153635
-0.0153634
-0.0153634
-0.0153635
-0.0153634
-0.0153635
-0.0153635
-0.0153635
-0.0153634
-0.0153634
-0.0153635
-0.0153635
-0.0153634
-0.0153634
-0.0153635
-0.0153635
-0.0153635
-0.0153634
-0.0153635
-0.0153634
-0.0153634
-0.0153635
-0.0153634
-0.0153635
-0.0153635
-0.0153635
-0.0153634
-0.0153634
-0.0153635
-0.0153635
-0.0153634
-0.0153634
-0.0153635
-0.0153635
-0.0153635
-0.0153634
-0.0153635
-0.0153634
-0.0153634
-0.0153635
-0.0153634
-0.0153635
-0.0153635
-0.0153635
-0.0153634
-0.0153634
-0.0153635
-0.0145819
-0.0145819
-0.0145819
-0.0145819
-0.0145819
-0.0145819
-0.0145819
-0.0145819
-0.0145819
-0.0145819
-0.0145819
-0.0145819
-0.0145819
-0.0145819
-0.0145819
-0.0145819
-0.0145819
-0.0145819
-0.0145819
-0.0145819
-0.0145819
-0.0145819
-0.0145819
-0.0145819
-0.0145819
-0.0145819
-0.0145819
-0.0145819
-0.0145819
-0.0145819
-0.0145819
-0.0145819
-0.0145819