/*--------------------------------*- C++ -*----------------------------------*\
| =========                 |                                                 |
| \\      /  F ield         | OpenFOAM: The Open Source CFD Toolbox           |
|  \\    /   O peration     | Version:  v1912                                 |
|   \\  /    A nd           | Website:  www.openfoam.com                      |
|    \\/     M anipulation  |                                                 |
\*---------------------------------------------------------------------------*/
FoamFile
{
    version     2.0;
    format      ascii;
    class       dictionary;
    object      blockMeshDict;
}
// * * * * * * * * * * * * * * * * * * * * * * * * * * * * * * * * * * * * * //

scale   0.001;

vertices
(
    (9.682458366 1 5)
    (0 1 -20)
    (0 1 -17)
    (6.690384569 1 5)

    (9.682458366 0 5)
    (0 0 -20)
    (0 0 -17)
    (6.690384569 0 5)

    // (-10 0.4361938737 0)
    // (0 0.4361938737 -10)
    // (0 0.3053357116 -7)
    // (-7 0.3053357116 0)
    // (-10 -0.4361938737 0)
    // (0 -0.4361938737 -10)
    // (0 -0.3053357116 -7)
    // (-7 -0.3053357116 0)
);

blocks
(
    hex (4 5 6 7 0 1 2 3) (15 3 1)
    edgeGrading
    (
        1 0.7 0.7
        1 1 1
        1 1 1
        1 1 1
    )
);

edges
(
    // Epicardial
    spline 1 0
    (
(	1.22465E-15		1		-20	)
(	0.182337553		1		-19.99667503	)
(	0.364614479		1		-19.98670121	)
(	0.546770172		1		-19.97008186	)
(	0.728744065		1		-19.94682251	)
(	0.910475653		1		-19.9169309	)
(	1.09190451		1		-19.88041695	)
(	1.272970311		1		-19.83729282	)
(	1.453612853		1		-19.78757283	)
(	1.633772072		1		-19.73127353	)
(	1.813388067		1		-19.66841363	)
(	1.992401114		1		-19.59901404	)
(	2.170751693		1		-19.52309782	)
(	2.348380502		1		-19.44069022	)
(	2.525228481		1		-19.35181863	)
(	2.701236828		1		-19.25651262	)
(	2.87634702		1		-19.15480387	)
(	3.050500835		1		-19.04672619	)
(	3.223640365		1		-18.93231553	)
(	3.395708043		1		-18.81160991	)
(	3.566646657		1		-18.68464949	)
(	3.73639937		1		-18.55147646	)
(	3.90490974		1		-18.41213512	)
(	4.072121736		1		-18.26667179	)
(	4.237979763		1		-18.11513484	)
(	4.402428672		1		-17.95757465	)
(	4.565413785		1		-17.79404361	)
(	4.726880909		1		-17.62459609	)
(	4.886776358		1		-17.44928845	)
(	5.045046965		1		-17.26817896	)
(	5.201640107		1		-17.08132784	)
(	5.356503717		1		-16.88879722	)
(	5.509586303		1		-16.69065113	)
(	5.660836966		1		-16.48695543	)
(	5.810205414		1		-16.27777786	)
(	5.957641984		1		-16.06318798	)
(	6.103097653		1		-15.84325712	)
(	6.246524058		1		-15.61805842	)
(	6.387873509		1		-15.38766675	)
(	6.527099008		1		-15.15215873	)
(	6.664154264		1		-14.91161265	)
(	6.798993705		1		-14.6661085	)
(	6.931572497		1		-14.4157279	)
(	7.06184656		1		-14.16055411	)
(	7.189772576		1		-13.90067197	)
(	7.315308011		1		-13.63616789	)
(	7.438411125		1		-13.36712983	)
(	7.559040985		1		-13.09364722	)
(	7.677157484		1		-12.81581101	)
(	7.792721347		1		-12.53371358	)
(	7.90569415		1		-12.24744871	)
(	8.01603833		1		-11.95711161	)
(	8.123717198		1		-11.66279879	)
(	8.22869495		1		-11.36460812	)
(	8.330936681		1		-11.06263875	)
(	8.430408397		1		-10.75699108	)
(	8.527077024		1		-10.44776673	)
(	8.62091042		1		-10.13506853	)
(	8.711877384		1		-9.819000448	)
(	8.799947671		1		-9.49966757	)
(	8.885091998		1		-9.177176077	)
(	8.967282054		1		-8.851633197	)
(	9.046490512		1		-8.52314717	)
(	9.122691034		1		-8.191827219	)
(	9.195858285		1		-7.857783506	)
(	9.265967936		1		-7.5211271	)
(	9.332996676		1		-7.181969938	)
(	9.396922218		1		-6.84042479	)
(	9.457723308		1		-6.496605217	)
(	9.515379728		1		-6.150625539	)
(	9.569872309		1		-5.802600794	)
(	9.621182931		1		-5.452646699	)
(	9.669294534		1		-5.100879613	)
(	9.714191122		1		-4.747416497	)
(	9.755857765		1		-4.392374877	)
(	9.79428061		1		-4.035872804	)
(	9.829446882		1		-3.678028813	)
(	9.861344888		1		-3.318961887	)
(	9.889964021		1		-2.958791415	)
(	9.915294767		1		-2.597637151	)
(	9.937328701		1		-2.23561918	)
(	9.9560585		1		-1.872857872	)
(	9.971477934		1		-1.509473842	)
(	9.983581876		1		-1.145587917	)
(	9.992366303		1		-0.781321086	)
(	9.997828294		1		-0.416794469	)
(	9.999966032		1		-0.052129268	)
(	9.998778806		1		0.312553266	)
(	9.994267012		1		0.677131877	)
(	9.986432149		1		1.041485343	)
(	9.975276823		1		1.405492518	)
(	9.960804743		1		1.76903237	)
(	9.94302072		1		2.131984023	)
(	9.921930668		1		2.494226797	)
(	9.897541599		1		2.855640247	)
(	9.869861622		1		3.216104203	)
(	9.838899941		1		3.575498814	)
(	9.804666852		1		3.933704579	)
(	9.767173735		1		4.290602399	)
(	9.726433057		1		4.646073603	)
(	9.682458366		1		5	)
    )

    spline 5 4
    (
(	1.22465E-15		0		-20	)
(	0.182337553		0		-19.99667503	)
(	0.364614479		0		-19.98670121	)
(	0.546770172		0		-19.97008186	)
(	0.728744065		0		-19.94682251	)
(	0.910475653		0		-19.9169309	)
(	1.09190451		0		-19.88041695	)
(	1.272970311		0		-19.83729282	)
(	1.453612853		0		-19.78757283	)
(	1.633772072		0		-19.73127353	)
(	1.813388067		0		-19.66841363	)
(	1.992401114		0		-19.59901404	)
(	2.170751693		0		-19.52309782	)
(	2.348380502		0		-19.44069022	)
(	2.525228481		0		-19.35181863	)
(	2.701236828		0		-19.25651262	)
(	2.87634702		0		-19.15480387	)
(	3.050500835		0		-19.04672619	)
(	3.223640365		0		-18.93231553	)
(	3.395708043		0		-18.81160991	)
(	3.566646657		0		-18.68464949	)
(	3.73639937		0		-18.55147646	)
(	3.90490974		0		-18.41213512	)
(	4.072121736		0		-18.26667179	)
(	4.237979763		0		-18.11513484	)
(	4.402428672		0		-17.95757465	)
(	4.565413785		0		-17.79404361	)
(	4.726880909		0		-17.62459609	)
(	4.886776358		0		-17.44928845	)
(	5.045046965		0		-17.26817896	)
(	5.201640107		0		-17.08132784	)
(	5.356503717		0		-16.88879722	)
(	5.509586303		0		-16.69065113	)
(	5.660836966		0		-16.48695543	)
(	5.810205414		0		-16.27777786	)
(	5.957641984		0		-16.06318798	)
(	6.103097653		0		-15.84325712	)
(	6.246524058		0		-15.61805842	)
(	6.387873509		0		-15.38766675	)
(	6.527099008		0		-15.15215873	)
(	6.664154264		0		-14.91161265	)
(	6.798993705		0		-14.6661085	)
(	6.931572497		0		-14.4157279	)
(	7.06184656		0		-14.16055411	)
(	7.189772576		0		-13.90067197	)
(	7.315308011		0		-13.63616789	)
(	7.438411125		0		-13.36712983	)
(	7.559040985		0		-13.09364722	)
(	7.677157484		0		-12.81581101	)
(	7.792721347		0		-12.53371358	)
(	7.90569415		0		-12.24744871	)
(	8.01603833		0		-11.95711161	)
(	8.123717198		0		-11.66279879	)
(	8.22869495		0		-11.36460812	)
(	8.330936681		0		-11.06263875	)
(	8.430408397		0		-10.75699108	)
(	8.527077024		0		-10.44776673	)
(	8.62091042		0		-10.13506853	)
(	8.711877384		0		-9.819000448	)
(	8.799947671		0		-9.49966757	)
(	8.885091998		0		-9.177176077	)
(	8.967282054		0		-8.851633197	)
(	9.046490512		0		-8.52314717	)
(	9.122691034		0		-8.191827219	)
(	9.195858285		0		-7.857783506	)
(	9.265967936		0		-7.5211271	)
(	9.332996676		0		-7.181969938	)
(	9.396922218		0		-6.84042479	)
(	9.457723308		0		-6.496605217	)
(	9.515379728		0		-6.150625539	)
(	9.569872309		0		-5.802600794	)
(	9.621182931		0		-5.452646699	)
(	9.669294534		0		-5.100879613	)
(	9.714191122		0		-4.747416497	)
(	9.755857765		0		-4.392374877	)
(	9.79428061		0		-4.035872804	)
(	9.829446882		0		-3.678028813	)
(	9.861344888		0		-3.318961887	)
(	9.889964021		0		-2.958791415	)
(	9.915294767		0		-2.597637151	)
(	9.937328701		0		-2.23561918	)
(	9.9560585		0		-1.872857872	)
(	9.971477934		0		-1.509473842	)
(	9.983581876		0		-1.145587917	)
(	9.992366303		0		-0.781321086	)
(	9.997828294		0		-0.416794469	)
(	9.999966032		0		-0.052129268	)
(	9.998778806		0		0.312553266	)
(	9.994267012		0		0.677131877	)
(	9.986432149		0		1.041485343	)
(	9.975276823		0		1.405492518	)
(	9.960804743		0		1.76903237	)
(	9.94302072		0		2.131984023	)
(	9.921930668		0		2.494226797	)
(	9.897541599		0		2.855640247	)
(	9.869861622		0		3.216104203	)
(	9.838899941		0		3.575498814	)
(	9.804666852		0		3.933704579	)
(	9.767173735		0		4.290602399	)
(	9.726433057		0		4.646073603	)
(	9.682458366		0		5	)
    )

    // Endocardial
    spline 2 3
    (
(	8.57253E-16		1		-17	)
(	0.130845376		1		-16.99702986	)
(	0.261645031		1		-16.98812046	)
(	0.39235326		1		-16.97327493	)
(	0.522924389		1		-16.95249845	)
(	0.653312794		1		-16.92579827	)
(	0.783472912		1		-16.89318374	)
(	0.913359262		1		-16.85466624	)
(	1.042926459		1		-16.81025924	)
(	1.172129227		1		-16.75997825	)
(	1.300922419		1		-16.70384084	)
(	1.429261031		1		-16.64186663	)
(	1.557100219		1		-16.57407728	)
(	1.684395311		1		-16.50049646	)
(	1.811101827		1		-16.4211499	)
(	1.937175492		1		-16.33606532	)
(	2.062572252		1		-16.24527244	)
(	2.18724829		1		-16.148803	)
(	2.311160041		1		-16.04669071	)
(	2.434264206		1		-15.93897124	)
(	2.556517769		1		-15.82568223	)
(	2.677878011		1		-15.70686328	)
(	2.798302526		1		-15.58255589	)
(	2.917749233		1		-15.45280352	)
(	3.036176395		1		-15.31765149	)
(	3.15354263		1		-15.17714703	)
(	3.269806926		1		-15.03133924	)
(	3.384928658		1		-14.88027907	)
(	3.498867598		1		-14.7240193	)
(	3.611583934		1		-14.56261454	)
(	3.723038278		1		-14.39612118	)
(	3.833191686		1		-14.2245974	)
(	3.942005666		1		-14.04810314	)
(	4.049442197		1		-13.86670007	)
(	4.155463735		1		-13.68045158	)
(	4.260033236		1		-13.48942274	)
(	4.363114158		1		-13.29368031	)
(	4.464670483		1		-13.09329268	)
(	4.564666724		1		-12.88832989	)
(	4.663067939		1		-12.67886354	)
(	4.759839744		1		-12.46496683	)
(	4.854948324		1		-12.2467145	)
(	4.948360446		1		-12.02418282	)
(	5.040043468		1		-11.79744954	)
(	5.129965354		1		-11.5665939	)
(	5.218094683		1		-11.33169656	)
(	5.30440066		1		-11.09283959	)
(	5.388853127		1		-10.85010647	)
(	5.471422574		1		-10.60358201	)
(	5.552080148		1		-10.35335235	)
(	5.630797666		1		-10.09950494	)
(	5.707547621		1		-9.842128466	)
(	5.782303195		1		-9.58131287	)
(	5.855038267		1		-9.317149289	)
(	5.925727419		1		-9.049730028	)
(	5.994345953		1		-8.779148531	)
(	6.060869889		1		-8.505499347	)
(	6.125275984		1		-8.228878097	)
(	6.18754173		1		-7.949381441	)
(	6.247645372		1		-7.667107043	)
(	6.305565908		1		-7.382153537	)
(	6.361283097		1		-7.094620494	)
(	6.414777471		1		-6.804608387	)
(	6.466030337		1		-6.512218555	)
(	6.515023787		1		-6.217553166	)
(	6.5617407		1		-5.920715185	)
(	6.606164752		1		-5.621808336	)
(	6.648280421		1		-5.320937066	)
(	6.688072989		1		-5.018206508	)
(	6.725528552		1		-4.713722444	)
(	6.760634023		1		-4.40759127	)
(	6.793377133		1		-4.099919956	)
(	6.823746443		1		-3.790816013	)
(	6.851731339		1		-3.48038745	)
(	6.877322043		1		-3.16874274	)
(	6.900509614		1		-2.855990779	)
(	6.921285948		1		-2.542240854	)
(	6.939643786		1		-2.227602596	)
(	6.955576713		1		-1.91218595	)
(	6.969079161		1		-1.596101132	)
(	6.980146413		1		-1.279458589	)
(	6.988774601		1		-0.962368968	)
(	6.99496071		1		-0.644943066	)
(	6.99870258		1		-0.327291804	)
(	6.999998901		1		-0.009526175	)
(	6.998849222		1		0.308242781	)
(	6.995253943		1		0.625904029	)
(	6.989214322		1		0.943346568	)
(	6.980732468		1		1.260459475	)
(	6.969811346		1		1.577131941	)
(	6.956454771		1		1.893253311	)
(	6.940667412		1		2.208713125	)
(	6.922454783		1		2.52340115	)
(	6.90182325		1		2.837207427	)
(	6.878780022		1		3.150022302	)
(	6.85333315		1		3.461736469	)
(	6.825491526		1		3.772241005	)
(	6.79526488		1		4.081427412	)
(	6.762663773		1		4.389187651	)
(	6.727699596		1		4.695414182	)
(	6.690384569		1		5	)
    )

    spline 6 7
    (
(	8.57253E-16		0		-17	)
(	0.130845376		0		-16.99702986	)
(	0.261645031		0		-16.98812046	)
(	0.39235326		0		-16.97327493	)
(	0.522924389		0		-16.95249845	)
(	0.653312794		0		-16.92579827	)
(	0.783472912		0		-16.89318374	)
(	0.913359262		0		-16.85466624	)
(	1.042926459		0		-16.81025924	)
(	1.172129227		0		-16.75997825	)
(	1.300922419		0		-16.70384084	)
(	1.429261031		0		-16.64186663	)
(	1.557100219		0		-16.57407728	)
(	1.684395311		0		-16.50049646	)
(	1.811101827		0		-16.4211499	)
(	1.937175492		0		-16.33606532	)
(	2.062572252		0		-16.24527244	)
(	2.18724829		0		-16.148803	)
(	2.311160041		0		-16.04669071	)
(	2.434264206		0		-15.93897124	)
(	2.556517769		0		-15.82568223	)
(	2.677878011		0		-15.70686328	)
(	2.798302526		0		-15.58255589	)
(	2.917749233		0		-15.45280352	)
(	3.036176395		0		-15.31765149	)
(	3.15354263		0		-15.17714703	)
(	3.269806926		0		-15.03133924	)
(	3.384928658		0		-14.88027907	)
(	3.498867598		0		-14.7240193	)
(	3.611583934		0		-14.56261454	)
(	3.723038278		0		-14.39612118	)
(	3.833191686		0		-14.2245974	)
(	3.942005666		0		-14.04810314	)
(	4.049442197		0		-13.86670007	)
(	4.155463735		0		-13.68045158	)
(	4.260033236		0		-13.48942274	)
(	4.363114158		0		-13.29368031	)
(	4.464670483		0		-13.09329268	)
(	4.564666724		0		-12.88832989	)
(	4.663067939		0		-12.67886354	)
(	4.759839744		0		-12.46496683	)
(	4.854948324		0		-12.2467145	)
(	4.948360446		0		-12.02418282	)
(	5.040043468		0		-11.79744954	)
(	5.129965354		0		-11.5665939	)
(	5.218094683		0		-11.33169656	)
(	5.30440066		0		-11.09283959	)
(	5.388853127		0		-10.85010647	)
(	5.471422574		0		-10.60358201	)
(	5.552080148		0		-10.35335235	)
(	5.630797666		0		-10.09950494	)
(	5.707547621		0		-9.842128466	)
(	5.782303195		0		-9.58131287	)
(	5.855038267		0		-9.317149289	)
(	5.925727419		0		-9.049730028	)
(	5.994345953		0		-8.779148531	)
(	6.060869889		0		-8.505499347	)
(	6.125275984		0		-8.228878097	)
(	6.18754173		0		-7.949381441	)
(	6.247645372		0		-7.667107043	)
(	6.305565908		0		-7.382153537	)
(	6.361283097		0		-7.094620494	)
(	6.414777471		0		-6.804608387	)
(	6.466030337		0		-6.512218555	)
(	6.515023787		0		-6.217553166	)
(	6.5617407		0		-5.920715185	)
(	6.606164752		0		-5.621808336	)
(	6.648280421		0		-5.320937066	)
(	6.688072989		0		-5.018206508	)
(	6.725528552		0		-4.713722444	)
(	6.760634023		0		-4.40759127	)
(	6.793377133		0		-4.099919956	)
(	6.823746443		0		-3.790816013	)
(	6.851731339		0		-3.48038745	)
(	6.877322043		0		-3.16874274	)
(	6.900509614		0		-2.855990779	)
(	6.921285948		0		-2.542240854	)
(	6.939643786		0		-2.227602596	)
(	6.955576713		0		-1.91218595	)
(	6.969079161		0		-1.596101132	)
(	6.980146413		0		-1.279458589	)
(	6.988774601		0		-0.962368968	)
(	6.99496071		0		-0.644943066	)
(	6.99870258		0		-0.327291804	)
(	6.999998901		0		-0.009526175	)
(	6.998849222		0		0.308242781	)
(	6.995253943		0		0.625904029	)
(	6.989214322		0		0.943346568	)
(	6.980732468		0		1.260459475	)
(	6.969811346		0		1.577131941	)
(	6.956454771		0		1.893253311	)
(	6.940667412		0		2.208713125	)
(	6.922454783		0		2.52340115	)
(	6.90182325		0		2.837207427	)
(	6.878780022		0		3.150022302	)
(	6.85333315		0		3.461736469	)
(	6.825491526		0		3.772241005	)
(	6.79526488		0		4.081427412	)
(	6.762663773		0		4.389187651	)
(	6.727699596		0		4.695414182	)
(	6.690384569		0		5	)
    )
);

boundary
(
    fixed
    {
        type patch;
        faces
        (
            (0 4 7 3)
        );
    }
    right
    {
        type patch;
        faces
        (
            (2 6 5 1)
        );
    }
    inside
    {
        type patch;
        faces
        (
            (3 7 6 2)
        );
    }
    outside
    {
        type patch;
        faces
        (
            (1 5 4 0)
        );
    }
    top
    {
        type patch;
        faces
        (
            (4 5 6 7)
        );
    }
    bottom
    {
        type patch;
        faces
        (
            (0 3 2 1)
        );
    }
);

mergePatchPairs
(
);

// ************************************************************************* //
